.SUBCKT {design_name} {ports}

{body}

.ends {design_name}