*|DSPF	1.5
*|DESIGN	nmos_cm_4
*|DATE	"Wed Jun 19 2024"
*|VENDOR	"Mentor Graphics Corporation"
*|PROGRAM	"Calibre xACT"
*|VERSION	"v2020.4_34.17"
*|DIVIDER	|
*|DELIMITER	:
*|BUSBIT	[]
* Corner Name: 12lp_11M_3Mx_4Cx_2Kx_2Gx_LB_nominal_detailed_25
* Nominal Temperature: 25C
* Circuit Temperature: 25C
* 

* Integrated TICER reduction is not enabled.
* SHORT DELAY THRESHOLD: 2e-14
* Fill Mode: NG
* PEX REDUCE CC ABSOLUTE : disabled
* PEX REDUCE CC RATIO : disabled
* Delta transform mode : 344834


.subckt nmos_cm_4 d0 d1 s
*
* d0 d0
* s s
* d1 d1
*
*|GROUND_NET 0
*
* Net Section
*


*|NET noxref_42 0.0618565f
*|I (X0_noxref:in X0_noxref in B 0.0 0.192 0.175)
*|S (noxref_42:2 0.18 0.175)
*|S (noxref_42:3 0.192 0.121)
*|S (noxref_42:4 0.192 0.229)
*|S (noxref_42:5 0.186 0.0935)
*|S (noxref_42:6 0.186 0.2825)
*|S (noxref_42:7 0.186 0.175)
*|S (noxref_42:8 0.192 0.127)
*|S (noxref_42:9 0.192 0.223)
*|S (noxref_42:10 0.186 0.175)
*|S (noxref_42:11 0.186 0.115)
*|S (noxref_42:12 0.186 0.235)
Cg_1 X0_noxref:in 0 3.19412e-20
Cg_2 noxref_42:2 0 0.00049364f
Cg_3 noxref_42:3 0 1.46752e-20
Cg_4 noxref_42:4 0 4.90995e-20
Cg_5 noxref_42:5 0 0.000247849f
Cg_6 noxref_42:6 0 0.000447124f
R1 X0_noxref:in noxref_42:7 7.0625 $X=0.192 $Y=0.175 $X2=0.186 $Y2=0.175
R2 X0_noxref:in noxref_42:8 452 $X=0.192 $Y=0.175 $X2=0.192 $Y2=0.127
R3 X0_noxref:in noxref_42:9 452 $X=0.192 $Y=0.175 $X2=0.192 $Y2=0.223
R4 noxref_42:2 noxref_42:7 5.65 $X=0.18 $Y=0.175 $X2=0.186 $Y2=0.175
R5 noxref_42:2 noxref_42:10 5.65 $X=0.18 $Y=0.175 $X2=0.186 $Y2=0.175
R6 noxref_42:2 noxref_42:11 565 $X=0.18 $Y=0.175 $X2=0.186 $Y2=0.115
R7 noxref_42:2 noxref_42:12 565 $X=0.18 $Y=0.175 $X2=0.186 $Y2=0.235
R8 noxref_42:3 noxref_42:8 56.5 $X=0.192 $Y=0.121 $X2=0.192 $Y2=0.127
R9 noxref_42:3 noxref_42:10 56.5 $X=0.192 $Y=0.121 $X2=0.186 $Y2=0.175
R10 noxref_42:3 noxref_42:11 56.5 $X=0.192 $Y=0.121 $X2=0.186 $Y2=0.115
R11 noxref_42:4 noxref_42:9 56.5 $X=0.192 $Y=0.229 $X2=0.192 $Y2=0.223
R12 noxref_42:4 noxref_42:10 56.5 $X=0.192 $Y=0.229 $X2=0.186 $Y2=0.175
R13 noxref_42:4 noxref_42:12 56.5 $X=0.192 $Y=0.229 $X2=0.186 $Y2=0.235
R14 noxref_42:5 noxref_42:11 60.9167 $X=0.186 $Y=0.0935 $X2=0.186 $Y2=0.115
R15 noxref_42:6 noxref_42:12 134.583 $X=0.186 $Y=0.2825 $X2=0.186 $Y2=0.235

*|NET noxref_48 0.0618541f
*|I (X1_noxref:in X1_noxref in B 0.0 3.378 0.175)
*|S (noxref_48:2 3.378 0.121)
*|S (noxref_48:3 3.378 0.229)
*|S (noxref_48:4 3.39 0.175)
*|S (noxref_48:5 3.384 0.0935)
*|S (noxref_48:6 3.384 0.2825)
*|S (noxref_48:7 3.378 0.127)
*|S (noxref_48:8 3.378 0.223)
*|S (noxref_48:9 3.384 0.175)
*|S (noxref_48:10 3.384 0.175)
*|S (noxref_48:11 3.384 0.115)
*|S (noxref_48:12 3.384 0.235)
Cg_7 X1_noxref:in 0 5.63965e-20
Cg_8 noxref_48:2 0 2.74431e-20
Cg_9 noxref_48:3 0 5.39847e-20
Cg_10 noxref_48:4 0 0.000512355f
Cg_11 noxref_48:5 0 0.000290626f
Cg_12 noxref_48:6 0 0.000610337f
Cc_13 noxref_48:4 d0:81 0.00047755f
Cc_14 noxref_48:5 d0:81 0.000130958f
Cc_15 noxref_48:6 d0:81 0.00154173f
Cc_16 noxref_48:5 d0:158 0.000154981f
Cc_17 noxref_48:6 d0:159 0.000277835f
Cc_18 X1_noxref:in d0:160 0.000148637f
Cc_19 noxref_48:2 d0:160 0.000107791f
Cc_20 noxref_48:5 d0:160 0.00387041f
Cc_21 noxref_48:3 d0:161 0.000121721f
Cc_22 noxref_48:6 d0:161 0.00616216f
Cc_23 noxref_48:6 d0:288 0.00356411f
R16 X1_noxref:in noxref_48:7 452 $X=3.378 $Y=0.175 $X2=3.378 $Y2=0.127
R17 X1_noxref:in noxref_48:8 452 $X=3.378 $Y=0.175 $X2=3.378 $Y2=0.223
R18 X1_noxref:in noxref_48:9 7.0625 $X=3.378 $Y=0.175 $X2=3.384 $Y2=0.175
R19 noxref_48:2 noxref_48:7 56.5 $X=3.378 $Y=0.121 $X2=3.378 $Y2=0.127
R20 noxref_48:2 noxref_48:10 56.5 $X=3.378 $Y=0.121 $X2=3.384 $Y2=0.175
R21 noxref_48:2 noxref_48:11 56.5 $X=3.378 $Y=0.121 $X2=3.384 $Y2=0.115
R22 noxref_48:3 noxref_48:8 56.5 $X=3.378 $Y=0.229 $X2=3.378 $Y2=0.223
R23 noxref_48:3 noxref_48:10 56.5 $X=3.378 $Y=0.229 $X2=3.384 $Y2=0.175
R24 noxref_48:3 noxref_48:12 56.5 $X=3.378 $Y=0.229 $X2=3.384 $Y2=0.235
R25 noxref_48:4 noxref_48:9 5.65 $X=3.39 $Y=0.175 $X2=3.384 $Y2=0.175
R26 noxref_48:4 noxref_48:10 5.65 $X=3.39 $Y=0.175 $X2=3.384 $Y2=0.175
R27 noxref_48:4 noxref_48:11 565 $X=3.39 $Y=0.175 $X2=3.384 $Y2=0.115
R28 noxref_48:4 noxref_48:12 565 $X=3.39 $Y=0.175 $X2=3.384 $Y2=0.235
R29 noxref_48:5 noxref_48:11 60.9167 $X=3.384 $Y=0.0935 $X2=3.384 $Y2=0.115
R30 noxref_48:6 noxref_48:12 134.583 $X=3.384 $Y=0.2825 $X2=3.384 $Y2=0.235

*|NET d0 4.03362f
*|P (d0 B 0.0 0.303 0.143)
*|I (MN0:g MN0 g B 0.0 0.264 0.175)
*|I (MN0@20:g MN0@20 g B 0.0 0.342 0.175)
*|I (MN1:g MN1 g B 0.0 0.42 0.175)
*|I (MN1@20:g MN1@20 g B 0.0 0.498 0.175)
*|I (MN0@19:g MN0@19 g B 0.0 0.576 0.175)
*|I (MN0@18:g MN0@18 g B 0.0 0.654 0.175)
*|I (MN1@19:g MN1@19 g B 0.0 0.732 0.175)
*|I (MN1@18:g MN1@18 g B 0.0 0.81 0.175)
*|I (MN0@17:g MN0@17 g B 0.0 0.888 0.175)
*|I (MN0@16:g MN0@16 g B 0.0 0.966 0.175)
*|I (MN1@17:g MN1@17 g B 0.0 1.044 0.175)
*|I (MN1@16:g MN1@16 g B 0.0 1.122 0.175)
*|I (MN0@15:g MN0@15 g B 0.0 1.2 0.175)
*|I (MN0@14:g MN0@14 g B 0.0 1.278 0.175)
*|I (MN1@15:g MN1@15 g B 0.0 1.356 0.175)
*|I (MN1@14:g MN1@14 g B 0.0 1.434 0.175)
*|I (MN0@13:g MN0@13 g B 0.0 1.512 0.175)
*|I (MN0@12:g MN0@12 g B 0.0 1.59 0.175)
*|I (MN1@13:g MN1@13 g B 0.0 1.668 0.175)
*|I (MN1@12:g MN1@12 g B 0.0 1.746 0.175)
*|I (MN0@11:g MN0@11 g B 0.0 1.824 0.175)
*|I (MN0@10:g MN0@10 g B 0.0 1.902 0.175)
*|I (MN1@11:g MN1@11 g B 0.0 1.98 0.175)
*|I (MN1@10:g MN1@10 g B 0.0 2.058 0.175)
*|I (MN0@9:g MN0@9 g B 0.0 2.136 0.175)
*|I (MN0@8:g MN0@8 g B 0.0 2.214 0.175)
*|I (MN1@9:g MN1@9 g B 0.0 2.292 0.175)
*|I (MN1@8:g MN1@8 g B 0.0 2.37 0.175)
*|I (MN0@7:g MN0@7 g B 0.0 2.448 0.175)
*|I (MN0@6:g MN0@6 g B 0.0 2.526 0.175)
*|I (MN1@7:g MN1@7 g B 0.0 2.604 0.175)
*|I (MN1@6:g MN1@6 g B 0.0 2.682 0.175)
*|I (MN0@5:g MN0@5 g B 0.0 2.76 0.175)
*|I (MN0@4:g MN0@4 g B 0.0 2.838 0.175)
*|I (MN1@5:g MN1@5 g B 0.0 2.916 0.175)
*|I (MN1@4:g MN1@4 g B 0.0 2.994 0.175)
*|I (MN0@3:g MN0@3 g B 0.0 3.072 0.175)
*|I (MN0@2:g MN0@2 g B 0.0 3.15 0.175)
*|I (MN1@3:g MN1@3 g B 0.0 3.228 0.175)
*|I (MN1@2:g MN1@2 g B 0.0 3.306 0.175)
*|I (MN0:d MN0 d B 0.0 0.2758 0.175)
*|I (MN0@19:d MN0@19 d B 0.0 0.5879 0.175)
*|I (MN0@17:d MN0@17 d B 0.0 0.8998 0.175)
*|I (MN0@15:d MN0@15 d B 0.0 1.2118 0.175)
*|I (MN0@13:d MN0@13 d B 0.0 1.5239 0.175)
*|I (MN0@11:d MN0@11 d B 0.0 1.8359 0.175)
*|I (MN0@9:d MN0@9 d B 0.0 2.1479 0.175)
*|I (MN0@7:d MN0@7 d B 0.0 2.4599 0.175)
*|I (MN0@5:d MN0@5 d B 0.0 2.7718 0.175)
*|I (MN0@3:d MN0@3 d B 0.0 3.0839 0.175)
*|I (MN0@16:d MN0@16 d B 0.0 0.9541 0.175)
*|I (MN0@12:d MN0@12 d B 0.0 1.5781 0.175)
*|I (MN0@8:d MN0@8 d B 0.0 2.2021 0.175)
*|I (MN0@20:d MN0@20 d B 0.0 0.3302 0.175)
*|I (MN0@18:d MN0@18 d B 0.0 0.6422 0.175)
*|I (MN0@14:d MN0@14 d B 0.0 1.2661 0.175)
*|I (MN0@4:d MN0@4 d B 0.0 2.8261 0.175)
*|I (MN0@10:d MN0@10 d B 0.0 1.8902 0.175)
*|I (MN0@6:d MN0@6 d B 0.0 2.5142 0.175)
*|I (MN0@2:d MN0@2 d B 0.0 3.1381 0.175)
*|S (d0:51 0.303 0.304)
*|S (d0:52 0.615 0.304)
*|S (d0:53 0.919 0.304)
*|S (d0:54 1.239 0.304)
*|S (d0:55 1.546 0.304)
*|S (d0:56 1.863 0.304)
*|S (d0:57 2.173 0.304)
*|S (d0:58 2.487 0.304)
*|S (d0:59 2.784 0.304)
*|S (d0:60 3.111 0.304)
*|S (d0:61 0.253 0.304)
*|S (d0:63 0.4065 0.304)
*|S (d0:64 0.615 0.2555)
*|S (d0:65 0.637 0.304)
*|S (d0:66 0.927 0.2555)
*|S (d0:67 1.005 0.304)
*|S (d0:68 1.239 0.2555)
*|S (d0:69 1.264 0.304)
*|S (d0:70 1.551 0.2555)
*|S (d0:71 1.629 0.304)
*|S (d0:72 1.863 0.2555)
*|S (d0:73 1.891 0.304)
*|S (d0:74 2.175 0.2555)
*|S (d0:75 2.253 0.304)
*|S (d0:76 2.487 0.2555)
*|S (d0:77 2.518 0.304)
*|S (d0:78 2.799 0.2555)
*|S (d0:79 2.902 0.304)
*|S (d0:80 3.111 0.2555)
*|S (d0:81 3.1585 0.304)
*|S (d0:82 0.264 0.0995)
*|S (d0:83 0.264 0.256)
*|S (d0:84 0.342 0.0995)
*|S (d0:85 0.342 0.256)
*|S (d0:86 0.42 0.0995)
*|S (d0:87 0.42 0.256)
*|S (d0:88 0.498 0.0995)
*|S (d0:89 0.498 0.256)
*|S (d0:90 0.576 0.0995)
*|S (d0:91 0.576 0.256)
*|S (d0:92 0.654 0.0995)
*|S (d0:93 0.654 0.256)
*|S (d0:94 0.732 0.0995)
*|S (d0:95 0.732 0.256)
*|S (d0:96 0.81 0.0995)
*|S (d0:97 0.81 0.256)
*|S (d0:98 0.888 0.0995)
*|S (d0:99 0.888 0.256)
*|S (d0:100 0.966 0.0995)
*|S (d0:101 0.966 0.256)
*|S (d0:102 1.044 0.0995)
*|S (d0:103 1.044 0.256)
*|S (d0:104 1.122 0.0995)
*|S (d0:105 1.122 0.256)
*|S (d0:106 1.2 0.0995)
*|S (d0:107 1.2 0.256)
*|S (d0:108 1.278 0.0995)
*|S (d0:109 1.278 0.256)
*|S (d0:110 1.356 0.0995)
*|S (d0:111 1.356 0.256)
*|S (d0:112 1.434 0.0995)
*|S (d0:113 1.434 0.256)
*|S (d0:114 1.512 0.0995)
*|S (d0:115 1.512 0.256)
*|S (d0:116 1.59 0.0995)
*|S (d0:117 1.59 0.256)
*|S (d0:118 1.668 0.0995)
*|S (d0:119 1.668 0.256)
*|S (d0:120 1.746 0.0995)
*|S (d0:121 1.746 0.256)
*|S (d0:122 1.824 0.0995)
*|S (d0:123 1.824 0.256)
*|S (d0:124 1.902 0.0995)
*|S (d0:125 1.902 0.256)
*|S (d0:126 1.98 0.0995)
*|S (d0:127 1.98 0.256)
*|S (d0:128 2.058 0.0995)
*|S (d0:129 2.058 0.256)
*|S (d0:130 2.136 0.0995)
*|S (d0:131 2.136 0.256)
*|S (d0:132 2.214 0.0995)
*|S (d0:133 2.214 0.256)
*|S (d0:134 2.292 0.0995)
*|S (d0:135 2.292 0.256)
*|S (d0:136 2.37 0.0995)
*|S (d0:137 2.37 0.256)
*|S (d0:138 2.448 0.0995)
*|S (d0:139 2.448 0.256)
*|S (d0:140 2.526 0.0995)
*|S (d0:141 2.526 0.256)
*|S (d0:142 2.604 0.0995)
*|S (d0:143 2.604 0.256)
*|S (d0:144 2.682 0.0995)
*|S (d0:145 2.682 0.256)
*|S (d0:146 2.76 0.0995)
*|S (d0:147 2.76 0.256)
*|S (d0:148 2.838 0.0995)
*|S (d0:149 2.838 0.256)
*|S (d0:150 2.916 0.0995)
*|S (d0:151 2.916 0.256)
*|S (d0:152 2.994 0.0995)
*|S (d0:153 2.994 0.256)
*|S (d0:154 3.072 0.0995)
*|S (d0:155 3.072 0.256)
*|S (d0:156 3.15 0.0995)
*|S (d0:157 3.15 0.256)
*|S (d0:158 3.228 0.0995)
*|S (d0:159 3.228 0.256)
*|S (d0:160 3.306 0.0995)
*|S (d0:161 3.306 0.256)
*|S (d0:162 0.303 0.175)
*|S (d0:163 0.615 0.175)
*|S (d0:164 0.927 0.175)
*|S (d0:165 1.239 0.175)
*|S (d0:166 1.551 0.175)
*|S (d0:167 1.863 0.175)
*|S (d0:168 2.175 0.175)
*|S (d0:169 2.487 0.175)
*|S (d0:170 2.799 0.175)
*|S (d0:171 3.111 0.175)
*|S (d0:277 0.303 0.175)
*|S (d0:278 0.615 0.175)
*|S (d0:279 0.927 0.175)
*|S (d0:280 1.239 0.175)
*|S (d0:281 1.551 0.175)
*|S (d0:282 1.863 0.175)
*|S (d0:283 2.175 0.175)
*|S (d0:284 2.487 0.175)
*|S (d0:285 2.799 0.175)
*|S (d0:286 3.111 0.175)
*|S (d0:287 0.2425 0.304)
*|S (d0:288 2.3301 0.304)
*|S (d0:289 1.2863 0.304)
*|S (d0:290 0.888 0.127)
*|S (d0:291 0.888 0.223)
*|S (d0:292 0.888 0.304)
*|S (d0:294 0.2745 0.304)
*|S (d0:295 0.3135 0.304)
*|S (d0:296 0.342 0.304)
*|S (d0:297 0.3725 0.304)
*|S (d0:298 0.4115 0.304)
*|S (d0:299 0.459 0.304)
*|S (d0:300 0.498 0.304)
*|S (d0:301 0.5135 0.304)
*|S (d0:302 0.533 0.304)
*|S (d0:303 0.5565 0.304)
*|S (d0:304 0.576 0.304)
*|S (d0:305 0.615 0.304)
*|S (d0:306 0.6585 0.304)
*|S (d0:307 0.6975 0.304)
*|S (d0:308 0.732 0.304)
*|S (d0:309 0.7565 0.304)
*|S (d0:310 0.7955 0.304)
*|S (d0:311 0.849 0.304)
*|S (d0:312 0.9015 0.304)
*|S (d0:313 0.9405 0.304)
*|S (d0:314 0.966 0.304)
*|S (d0:315 0.9995 0.304)
*|S (d0:316 1.0385 0.304)
*|S (d0:317 1.083 0.304)
*|S (d0:318 1.122 0.304)
*|S (d0:319 1.1405 0.304)
*|S (d0:320 1.163 0.304)
*|S (d0:321 1.1835 0.304)
*|S (d0:322 1.2 0.304)
*|S (d0:323 1.2398 0.304)
*|S (d0:324 1.3245 0.304)
*|S (d0:325 1.356 0.304)
*|S (d0:326 1.3835 0.304)
*|S (d0:327 1.4225 0.304)
*|S (d0:328 1.473 0.304)
*|S (d0:329 1.512 0.304)
*|S (d0:330 1.5245 0.304)
*|S (d0:331 1.541 0.304)
*|S (d0:332 1.5675 0.304)
*|S (d0:333 1.59 0.304)
*|S (d0:334 1.6265 0.304)
*|S (d0:335 1.667 0.304)
*|S (d0:336 1.7085 0.304)
*|S (d0:337 1.746 0.304)
*|S (d0:338 1.7675 0.304)
*|S (d0:339 1.793 0.304)
*|S (d0:340 1.8105 0.304)
*|S (d0:341 1.824 0.304)
*|S (d0:342 1.863 0.304)
*|S (d0:343 1.9125 0.304)
*|S (d0:344 1.9515 0.304)
*|S (d0:345 1.98 0.304)
*|S (d0:346 2.0105 0.304)
*|S (d0:347 2.0495 0.304)
*|S (d0:348 2.097 0.304)
*|S (d0:349 2.136 0.304)
*|S (d0:350 2.1515 0.304)
*|S (d0:351 2.171 0.304)
*|S (d0:352 2.1945 0.304)
*|S (d0:353 2.214 0.304)
*|S (d0:354 2.253 0.304)
*|S (d0:355 2.2911 0.304)
*|S (d0:356 0.264 0.304)
*|S (d0:358 0.342 0.304)
*|S (d0:360 0.42 0.304)
*|S (d0:362 0.498 0.304)
*|S (d0:364 0.576 0.304)
*|S (d0:366 0.654 0.304)
*|S (d0:368 0.732 0.304)
*|S (d0:370 0.81 0.304)
*|S (d0:372 0.966 0.304)
*|S (d0:374 1.044 0.304)
*|S (d0:376 1.122 0.304)
*|S (d0:378 1.2 0.304)
*|S (d0:380 0.276 0.304)
*|S (d0:383 0.378 0.304)
*|S (d0:384 0.394 0.304)
*|S (d0:385 0.342 0.304)
*|S (d0:386 0.4195 0.304)
*|S (d0:387 0.433 0.304)
*|S (d0:388 0.459 0.304)
*|S (d0:389 0.496 0.304)
*|S (d0:390 0.519 0.304)
*|S (d0:391 0.535 0.304)
*|S (d0:392 0.551 0.304)
*|S (d0:393 0.576 0.304)
*|S (d0:394 0.659 0.304)
*|S (d0:395 0.676 0.304)
*|S (d0:396 0.693 0.304)
*|S (d0:397 0.732 0.304)
*|S (d0:398 0.762 0.304)
*|S (d0:399 0.778 0.304)
*|S (d0:400 0.794 0.304)
*|S (d0:401 0.817 0.304)
*|S (d0:402 0.849 0.304)
*|S (d0:403 0.888 0.304)
*|S (d0:404 0.935 0.304)
*|S (d0:405 0.966 0.304)
*|S (d0:406 1.037 0.304)
*|S (d0:407 1.06 0.304)
*|S (d0:408 1.083 0.304)
*|S (d0:409 1.122 0.304)
*|S (d0:410 1.146 0.304)
*|S (d0:411 1.162 0.304)
*|S (d0:412 1.178 0.304)
*|S (d0:413 1.201 0.304)
*|S (d0:414 2.37 0.304)
*|S (d0:415 2.3945 0.304)
*|S (d0:416 2.4335 0.304)
*|S (d0:417 2.487 0.304)
*|S (d0:418 2.5395 0.304)
*|S (d0:419 2.5785 0.304)
*|S (d0:420 2.604 0.304)
*|S (d0:421 2.6375 0.304)
*|S (d0:422 2.6765 0.304)
*|S (d0:423 2.721 0.304)
*|S (d0:424 2.76 0.304)
*|S (d0:425 2.7785 0.304)
*|S (d0:426 2.801 0.304)
*|S (d0:427 2.8215 0.304)
*|S (d0:428 2.838 0.304)
*|S (d0:429 2.877 0.304)
*|S (d0:430 2.9235 0.304)
*|S (d0:431 2.9625 0.304)
*|S (d0:432 2.994 0.304)
*|S (d0:433 3.0215 0.304)
*|S (d0:434 3.0605 0.304)
*|S (d0:435 3.111 0.304)
*|S (d0:436 3.15 0.304)
*|S (d0:437 3.1625 0.304)
*|S (d0:438 3.179 0.304)
*|S (d0:439 3.2055 0.304)
*|S (d0:440 3.228 0.304)
*|S (d0:441 3.2645 0.304)
*|S (d0:442 3.305 0.304)
*|S (d0:444 1.278 0.304)
*|S (d0:446 1.356 0.304)
*|S (d0:448 1.434 0.304)
*|S (d0:450 1.512 0.304)
*|S (d0:452 1.59 0.304)
*|S (d0:454 1.668 0.304)
*|S (d0:456 1.746 0.304)
*|S (d0:458 1.824 0.304)
*|S (d0:460 1.902 0.304)
*|S (d0:462 1.98 0.304)
*|S (d0:464 2.058 0.304)
*|S (d0:466 2.136 0.304)
*|S (d0:468 2.214 0.304)
*|S (d0:470 2.292 0.304)
*|S (d0:472 1.287 0.304)
*|S (d0:473 1.303 0.304)
*|S (d0:474 1.319 0.304)
*|S (d0:475 1.356 0.304)
*|S (d0:476 1.389 0.304)
*|S (d0:477 1.405 0.304)
*|S (d0:478 1.421 0.304)
*|S (d0:479 1.444 0.304)
*|S (d0:480 1.473 0.304)
*|S (d0:481 1.512 0.304)
*|S (d0:482 1.562 0.304)
*|S (d0:483 1.59 0.304)
*|S (d0:484 1.648 0.304)
*|S (d0:485 1.667 0.304)
*|S (d0:486 1.687 0.304)
*|S (d0:487 1.707 0.304)
*|S (d0:488 1.746 0.304)
*|S (d0:489 1.773 0.304)
*|S (d0:490 1.789 0.304)
*|S (d0:491 1.805 0.304)
*|S (d0:492 1.828 0.304)
*|S (d0:493 1.914 0.304)
*|S (d0:494 1.93 0.304)
*|S (d0:495 1.946 0.304)
*|S (d0:496 1.98 0.304)
*|S (d0:497 2.016 0.304)
*|S (d0:498 2.032 0.304)
*|S (d0:499 2.048 0.304)
*|S (d0:500 2.071 0.304)
*|S (d0:501 2.097 0.304)
*|S (d0:502 2.136 0.304)
*|S (d0:503 2.189 0.304)
*|S (d0:504 2.214 0.304)
*|S (d0:505 2.275 0.304)
*|S (d0:506 2.297 0.304)
*|S (d0:507 2.314 0.304)
*|S (d0:508 2.331 0.304)
*|S (d0:509 2.37 0.304)
*|S (d0:510 2.4 0.304)
*|S (d0:511 2.416 0.304)
*|S (d0:512 2.432 0.304)
*|S (d0:513 2.455 0.304)
*|S (d0:514 0.264 0.223)
*|S (d0:515 0.264 0.127)
*|S (d0:516 0.342 0.223)
*|S (d0:517 0.342 0.127)
*|S (d0:518 0.42 0.223)
*|S (d0:519 0.42 0.127)
*|S (d0:520 0.498 0.223)
*|S (d0:521 0.498 0.127)
*|S (d0:522 0.576 0.223)
*|S (d0:523 0.576 0.127)
*|S (d0:524 0.654 0.223)
*|S (d0:525 0.654 0.127)
*|S (d0:526 0.732 0.223)
*|S (d0:527 0.732 0.127)
*|S (d0:528 0.81 0.223)
*|S (d0:529 0.81 0.127)
*|S (d0:530 0.966 0.223)
*|S (d0:531 0.966 0.127)
*|S (d0:532 1.044 0.223)
*|S (d0:533 1.044 0.127)
*|S (d0:534 1.122 0.223)
*|S (d0:535 1.122 0.127)
*|S (d0:536 1.2 0.223)
*|S (d0:537 1.2 0.127)
*|S (d0:539 0.927 0.175)
*|S (d0:540 0.927 0.207)
*|S (d0:541 2.37 0.304)
*|S (d0:543 2.448 0.304)
*|S (d0:545 2.526 0.304)
*|S (d0:547 2.604 0.304)
*|S (d0:549 2.682 0.304)
*|S (d0:551 2.76 0.304)
*|S (d0:553 2.838 0.304)
*|S (d0:555 2.916 0.304)
*|S (d0:557 2.994 0.304)
*|S (d0:559 3.072 0.304)
*|S (d0:561 3.15 0.304)
*|S (d0:563 3.228 0.304)
*|S (d0:565 3.306 0.304)
*|S (d0:567 2.541 0.304)
*|S (d0:568 2.557 0.304)
*|S (d0:569 2.573 0.304)
*|S (d0:570 2.604 0.304)
*|S (d0:571 2.643 0.304)
*|S (d0:572 2.675 0.304)
*|S (d0:573 2.698 0.304)
*|S (d0:574 2.721 0.304)
*|S (d0:575 2.76 0.304)
*|S (d0:576 2.8 0.304)
*|S (d0:577 2.925 0.304)
*|S (d0:578 2.877 0.304)
*|S (d0:579 2.838 0.304)
*|S (d0:580 2.941 0.304)
*|S (d0:581 2.957 0.304)
*|S (d0:582 2.994 0.304)
*|S (d0:583 3.027 0.304)
*|S (d0:584 3.043 0.304)
*|S (d0:585 3.059 0.304)
*|S (d0:586 3.082 0.304)
*|S (d0:587 3.168 0.304)
*|S (d0:588 3.1405 0.304)
*|S (d0:589 3.184 0.304)
*|S (d0:590 3.2 0.304)
*|S (d0:591 3.228 0.304)
*|S (d0:592 3.267 0.304)
*|S (d0:593 3.286 0.304)
*|S (d0:594 3.305 0.304)
*|S (d0:598 1.278 0.223)
*|S (d0:599 1.278 0.127)
*|S (d0:600 1.356 0.223)
*|S (d0:601 1.356 0.127)
*|S (d0:602 1.434 0.223)
*|S (d0:603 1.434 0.127)
*|S (d0:604 1.512 0.223)
*|S (d0:605 1.512 0.127)
*|S (d0:606 1.59 0.223)
*|S (d0:607 1.59 0.127)
*|S (d0:608 1.668 0.223)
*|S (d0:609 1.668 0.127)
*|S (d0:610 1.746 0.223)
*|S (d0:611 1.746 0.127)
*|S (d0:612 1.824 0.223)
*|S (d0:613 1.824 0.127)
*|S (d0:614 1.902 0.223)
*|S (d0:615 1.902 0.127)
*|S (d0:616 1.98 0.223)
*|S (d0:617 1.98 0.127)
*|S (d0:618 2.058 0.223)
*|S (d0:619 2.058 0.127)
*|S (d0:620 2.136 0.223)
*|S (d0:621 2.136 0.127)
*|S (d0:622 2.214 0.223)
*|S (d0:623 2.214 0.127)
*|S (d0:624 2.292 0.223)
*|S (d0:625 2.292 0.127)
*|S (d0:627 1.551 0.175)
*|S (d0:628 1.551 0.207)
*|S (d0:630 2.175 0.175)
*|S (d0:631 2.175 0.207)
*|S (d0:633 0.303 0.2555)
*|S (d0:634 0.303 0.1512)
*|S (d0:635 0.303 0.175)
*|S (d0:636 0.303 0.207)
*|S (d0:638 0.615 0.175)
*|S (d0:639 0.615 0.207)
*|S (d0:641 1.239 0.175)
*|S (d0:642 1.239 0.207)
*|S (d0:643 2.37 0.223)
*|S (d0:644 2.37 0.127)
*|S (d0:645 2.448 0.223)
*|S (d0:646 2.448 0.127)
*|S (d0:647 2.526 0.223)
*|S (d0:648 2.526 0.127)
*|S (d0:649 2.604 0.223)
*|S (d0:650 2.604 0.127)
*|S (d0:651 2.682 0.223)
*|S (d0:652 2.682 0.127)
*|S (d0:653 2.76 0.223)
*|S (d0:654 2.76 0.127)
*|S (d0:655 2.838 0.223)
*|S (d0:656 2.838 0.127)
*|S (d0:657 2.916 0.223)
*|S (d0:658 2.916 0.127)
*|S (d0:659 2.994 0.223)
*|S (d0:660 2.994 0.127)
*|S (d0:661 3.072 0.223)
*|S (d0:662 3.072 0.127)
*|S (d0:663 3.15 0.223)
*|S (d0:664 3.15 0.127)
*|S (d0:665 3.228 0.223)
*|S (d0:666 3.228 0.127)
*|S (d0:667 3.306 0.223)
*|S (d0:668 3.306 0.127)
*|S (d0:670 2.799 0.175)
*|S (d0:671 2.799 0.207)
*|S (d0:673 1.863 0.175)
*|S (d0:674 1.863 0.207)
*|S (d0:676 2.487 0.175)
*|S (d0:677 2.487 0.207)
*|S (d0:679 3.111 0.175)
*|S (d0:680 3.111 0.207)
Cg_24 MN0:g 0 2.70273e-25
Cg_25 MN0@20:g 0 2.98336e-25
Cg_26 MN1:g 0 9.77499e-20
Cg_27 MN1@20:g 0 5.67083e-25
Cg_28 MN0@19:g 0 0.00031806f
Cg_29 MN0@18:g 0 2.67451e-25
Cg_30 MN1@19:g 0 4.92846e-25
Cg_31 MN1@18:g 0 5.3609e-25
Cg_32 MN0@17:g 0 2.48244e-25
Cg_33 MN0@16:g 0 2.67451e-25
Cg_34 MN1@17:g 0 5.95444e-21
Cg_35 MN1@16:g 0 5.43073e-25
Cg_36 MN0@15:g 0 2.67451e-25
Cg_37 MN0@14:g 0 2.73592e-25
Cg_38 MN1@15:g 0 5.95444e-21
Cg_39 MN1@14:g 0 5.43073e-25
Cg_40 MN0@13:g 0 2.67374e-25
Cg_41 MN0@12:g 0 2.98394e-25
Cg_42 MN1@13:g 0 9.77499e-20
Cg_43 MN1@12:g 0 5.16855e-25
Cg_44 MN0@11:g 0 2.67451e-25
Cg_45 MN0@10:g 0 2.98471e-25
Cg_46 MN1@11:g 0 9.77499e-20
Cg_47 MN1@10:g 0 5.16855e-25
Cg_48 MN0@9:g 0 2.67374e-25
Cg_49 MN0@8:g 0 2.73593e-25
Cg_50 MN1@9:g 0 5.95444e-21
Cg_51 MN1@8:g 0 5.49261e-25
Cg_52 MN0@7:g 0 2.67451e-25
Cg_53 MN0@6:g 0 2.67374e-25
Cg_54 MN1@7:g 0 5.95444e-21
Cg_55 MN1@6:g 0 5.62308e-25
Cg_56 MN0@5:g 0 2.48167e-25
Cg_57 MN0@4:g 0 2.98394e-25
Cg_58 MN1@5:g 0 0.000601776f
Cg_59 MN1@4:g 0 5.62308e-25
Cg_60 MN0@3:g 0 2.48167e-25
Cg_61 MN0@2:g 0 2.67374e-25
Cg_62 MN1@3:g 0 5.93027e-21
Cg_63 MN1@2:g 0 5.57132e-25
Cg_64 MN0:d 0 0.000177978f
Cg_65 MN0@19:d 0 0.000132004f
Cg_66 MN0@17:d 0 0.000197833f
Cg_67 MN0@15:d 0 0.000157378f
Cg_68 MN0@13:d 0 0.000145716f
Cg_69 MN0@11:d 0 0.000145717f
Cg_70 MN0@9:d 0 0.00017385f
Cg_71 MN0@7:d 0 0.000130989f
Cg_72 MN0@5:d 0 0.000118341f
Cg_73 MN0@3:d 0 0.00013251f
Cg_74 d0:51 0 0.0012576f
Cg_75 d0:52 0 0.00160536f
Cg_76 d0:53 0 0.00157573f
Cg_77 d0:54 0 0.00153128f
Cg_78 d0:55 0 0.00150165f
Cg_79 d0:56 0 0.0014572f
Cg_80 d0:57 0 0.00142757f
Cg_81 d0:58 0 0.00138313f
Cg_82 d0:59 0 0.0013535f
Cg_83 d0:60 0 0.00130905f
Cg_84 d0:61 0 0.00445523f
Cg_85 d0 0 0.0176976f
Cg_86 d0:63 0 0.01732f
Cg_87 d0:64 0 0.0174072f
Cg_88 d0:65 0 0.0169246f
Cg_89 d0:66 0 0.0174082f
Cg_90 d0:67 0 0.0166984f
Cg_91 d0:68 0 0.017408f
Cg_92 d0:69 0 0.0174132f
Cg_93 d0:70 0 0.0174067f
Cg_94 d0:71 0 0.0220283f
Cg_95 d0:72 0 0.0174082f
Cg_96 d0:73 0 0.016781f
Cg_97 d0:74 0 0.0174086f
Cg_98 d0:75 0 0.019899f
Cg_99 d0:76 0 0.0174121f
Cg_100 d0:77 0 0.0164962f
Cg_101 d0:78 0 0.0174126f
Cg_102 d0:79 0 0.0166955f
Cg_103 d0:80 0 0.0177176f
Cg_104 d0:81 0 0.0100868f
Cg_105 d0:82 0 0.000617493f
Cg_106 d0:83 0 0.000899064f
Cg_107 d0:84 0 0.000626884f
Cg_108 d0:85 0 0.000757194f
Cg_109 d0:86 0 0.00100759f
Cg_110 d0:87 0 0.00119609f
Cg_111 d0:88 0 0.00100759f
Cg_112 d0:89 0 0.00125501f
Cg_113 d0:90 0 0.000507963f
Cg_114 d0:91 0 0.000924356f
Cg_115 d0:92 0 0.000511394f
Cg_116 d0:93 0 0.00092315f
Cg_117 d0:94 0 0.00100759f
Cg_118 d0:95 0 0.001482f
Cg_119 d0:96 0 0.00100759f
Cg_120 d0:97 0 0.00148125f
Cg_121 d0:98 0 0.000510324f
Cg_122 d0:99 0 0.000926118f
Cg_123 d0:100 0 0.000505013f
Cg_124 d0:101 0 0.000922606f
Cg_125 d0:102 0 0.00100759f
Cg_126 d0:103 0 0.00147616f
Cg_127 d0:104 0 0.00100759f
Cg_128 d0:105 0 0.00138563f
Cg_129 d0:106 0 0.000510582f
Cg_130 d0:107 0 0.000933966f
Cg_131 d0:108 0 0.000510555f
Cg_132 d0:109 0 0.000996812f
Cg_133 d0:110 0 0.00100759f
Cg_134 d0:111 0 0.00148233f
Cg_135 d0:112 0 0.00100759f
Cg_136 d0:113 0 0.00137288f
Cg_137 d0:114 0 0.000507941f
Cg_138 d0:115 0 0.000926524f
Cg_139 d0:116 0 0.000507913f
Cg_140 d0:117 0 0.000922058f
Cg_141 d0:118 0 0.00100759f
Cg_142 d0:119 0 0.00136933f
Cg_143 d0:120 0 0.00100759f
Cg_144 d0:121 0 0.00137941f
Cg_145 d0:122 0 0.000507941f
Cg_146 d0:123 0 0.000925423f
Cg_147 d0:124 0 0.000510582f
Cg_148 d0:125 0 0.000921294f
Cg_149 d0:126 0 0.00100759f
Cg_150 d0:127 0 0.00137953f
Cg_151 d0:128 0 0.00100759f
Cg_152 d0:129 0 0.00137159f
Cg_153 d0:130 0 0.000510582f
Cg_154 d0:131 0 0.000986839f
Cg_155 d0:132 0 0.000510582f
Cg_156 d0:133 0 0.000921785f
Cg_157 d0:134 0 0.00100759f
Cg_158 d0:135 0 0.00148879f
Cg_159 d0:136 0 0.00100759f
Cg_160 d0:137 0 0.0014979f
Cg_161 d0:138 0 0.000510555f
Cg_162 d0:139 0 0.000991752f
Cg_163 d0:140 0 0.000507913f
Cg_164 d0:141 0 0.000923245f
Cg_165 d0:142 0 0.00100759f
Cg_166 d0:143 0 0.00148299f
Cg_167 d0:144 0 0.00100759f
Cg_168 d0:145 0 0.00147475f
Cg_169 d0:146 0 0.000511394f
Cg_170 d0:147 0 0.000988615f
Cg_171 d0:148 0 0.00050792f
Cg_172 d0:149 0 0.000923329f
Cg_173 d0:150 0 0.00100759f
Cg_174 d0:151 0 0.00147571f
Cg_175 d0:152 0 0.00100759f
Cg_176 d0:153 0 0.00157215f
Cg_177 d0:154 0 0.000511394f
Cg_178 d0:155 0 0.000773373f
Cg_179 d0:156 0 0.000510605f
Cg_180 d0:157 0 0.000666155f
Cg_181 d0:158 0 0.000989301f
Cg_182 d0:159 0 0.00127519f
Cg_183 d0:160 0 0.00105378f
Cg_184 d0:161 0 0.00135952f
Cg_185 d0:162 0 0.000133002f
Cg_186 d0:163 0 0.000113164f
Cg_187 d0:164 0 0.000113164f
Cg_188 d0:165 0 0.000113164f
Cg_189 d0:166 0 0.000113164f
Cg_190 d0:167 0 0.000113164f
Cg_191 d0:168 0 0.000113164f
Cg_192 d0:169 0 0.000113164f
Cg_193 d0:170 0 0.000113164f
Cg_194 d0:171 0 0.000113164f
Cg_195 d0:277 0 0.000288756f
Cg_196 d0:278 0 0.000353441f
Cg_197 d0:279 0 0.000353698f
Cg_198 d0:280 0 0.000353443f
Cg_199 d0:281 0 0.000353698f
Cg_200 d0:282 0 0.00035331f
Cg_201 d0:283 0 0.000353698f
Cg_202 d0:284 0 0.000353403f
Cg_203 d0:285 0 0.000353698f
Cg_204 d0:286 0 0.000355925f
Cg_205 d0:287 0 0.00431024f
Cg_206 d0:288 0 0.00452508f
Cg_207 d0:289 0 0.00526419f
Cc_208 d0:82 X0_noxref:in 0.00015147f
Cc_209 MN0:d noxref_42:2 0.000373387f
Cc_210 d0:61 noxref_42:2 0.000299204f
Cc_211 d0:82 noxref_42:3 0.000117115f
Cc_212 d0:83 noxref_42:4 0.000128903f
Cc_213 MN0:g noxref_42:5 0.000147308f
Cc_214 d0:61 noxref_42:5 0.000135303f
Cc_215 d0:82 noxref_42:5 0.00395718f
Cc_216 d0:84 noxref_42:5 0.000235418f
Cc_217 d0:277 noxref_42:5 0.00013418f
Cc_218 d0:61 noxref_42:6 0.00131286f
Cc_219 d0:83 noxref_42:6 0.00629933f
Cc_220 d0:85 noxref_42:6 0.000180282f
Cc_221 d0:287 noxref_42:6 0.00365858f
R31 MN0:g d0:514 69.5333 $X=0.264 $Y=0.175 $X2=0.264 $Y2=0.223
R32 MN0:g d0:515 69.5333 $X=0.264 $Y=0.175 $X2=0.264 $Y2=0.127
R33 MN0@20:g d0:516 69.5333 $X=0.342 $Y=0.175 $X2=0.342 $Y2=0.223
R34 MN0@20:g d0:517 69.5333 $X=0.342 $Y=0.175 $X2=0.342 $Y2=0.127
R35 MN1:g d0:518 69.5333 $X=0.42 $Y=0.175 $X2=0.42 $Y2=0.223
R36 MN1:g d0:519 69.5333 $X=0.42 $Y=0.175 $X2=0.42 $Y2=0.127
R37 MN1@20:g d0:520 69.5333 $X=0.498 $Y=0.175 $X2=0.498 $Y2=0.223
R38 MN1@20:g d0:521 69.5333 $X=0.498 $Y=0.175 $X2=0.498 $Y2=0.127
R39 MN0@19:g d0:522 69.5333 $X=0.576 $Y=0.175 $X2=0.576 $Y2=0.223
R40 MN0@19:g d0:523 69.5333 $X=0.576 $Y=0.175 $X2=0.576 $Y2=0.127
R41 MN0@18:g d0:524 69.5333 $X=0.654 $Y=0.175 $X2=0.654 $Y2=0.223
R42 MN0@18:g d0:525 69.5333 $X=0.654 $Y=0.175 $X2=0.654 $Y2=0.127
R43 MN1@19:g d0:526 69.5333 $X=0.732 $Y=0.175 $X2=0.732 $Y2=0.223
R44 MN1@19:g d0:527 69.5333 $X=0.732 $Y=0.175 $X2=0.732 $Y2=0.127
R45 MN1@18:g d0:528 69.5333 $X=0.81 $Y=0.175 $X2=0.81 $Y2=0.223
R46 MN1@18:g d0:529 69.5333 $X=0.81 $Y=0.175 $X2=0.81 $Y2=0.127
R47 MN0@17:g d0:290 69.5333 $X=0.888 $Y=0.175 $X2=0.888 $Y2=0.127
R48 MN0@17:g d0:291 69.5333 $X=0.888 $Y=0.175 $X2=0.888 $Y2=0.223
R49 MN0@16:g d0:530 69.5333 $X=0.966 $Y=0.175 $X2=0.966 $Y2=0.223
R50 MN0@16:g d0:531 69.5333 $X=0.966 $Y=0.175 $X2=0.966 $Y2=0.127
R51 MN1@17:g d0:532 69.5333 $X=1.044 $Y=0.175 $X2=1.044 $Y2=0.223
R52 MN1@17:g d0:533 69.5333 $X=1.044 $Y=0.175 $X2=1.044 $Y2=0.127
R53 MN1@16:g d0:534 69.5333 $X=1.122 $Y=0.175 $X2=1.122 $Y2=0.223
R54 MN1@16:g d0:535 69.5333 $X=1.122 $Y=0.175 $X2=1.122 $Y2=0.127
R55 MN0@15:g d0:536 69.5333 $X=1.2 $Y=0.175 $X2=1.2 $Y2=0.223
R56 MN0@15:g d0:537 69.5333 $X=1.2 $Y=0.175 $X2=1.2 $Y2=0.127
R57 MN0@14:g d0:598 69.5333 $X=1.278 $Y=0.175 $X2=1.278 $Y2=0.223
R58 MN0@14:g d0:599 69.5333 $X=1.278 $Y=0.175 $X2=1.278 $Y2=0.127
R59 MN1@15:g d0:600 69.5333 $X=1.356 $Y=0.175 $X2=1.356 $Y2=0.223
R60 MN1@15:g d0:601 69.5333 $X=1.356 $Y=0.175 $X2=1.356 $Y2=0.127
R61 MN1@14:g d0:602 69.5333 $X=1.434 $Y=0.175 $X2=1.434 $Y2=0.223
R62 MN1@14:g d0:603 69.5333 $X=1.434 $Y=0.175 $X2=1.434 $Y2=0.127
R63 MN0@13:g d0:604 69.5333 $X=1.512 $Y=0.175 $X2=1.512 $Y2=0.223
R64 MN0@13:g d0:605 69.5333 $X=1.512 $Y=0.175 $X2=1.512 $Y2=0.127
R65 MN0@12:g d0:606 69.5333 $X=1.59 $Y=0.175 $X2=1.59 $Y2=0.223
R66 MN0@12:g d0:607 69.5333 $X=1.59 $Y=0.175 $X2=1.59 $Y2=0.127
R67 MN1@13:g d0:608 69.5333 $X=1.668 $Y=0.175 $X2=1.668 $Y2=0.223
R68 MN1@13:g d0:609 69.5333 $X=1.668 $Y=0.175 $X2=1.668 $Y2=0.127
R69 MN1@12:g d0:610 69.5333 $X=1.746 $Y=0.175 $X2=1.746 $Y2=0.223
R70 MN1@12:g d0:611 69.5333 $X=1.746 $Y=0.175 $X2=1.746 $Y2=0.127
R71 MN0@11:g d0:612 69.5333 $X=1.824 $Y=0.175 $X2=1.824 $Y2=0.223
R72 MN0@11:g d0:613 69.5333 $X=1.824 $Y=0.175 $X2=1.824 $Y2=0.127
R73 MN0@10:g d0:614 69.5333 $X=1.902 $Y=0.175 $X2=1.902 $Y2=0.223
R74 MN0@10:g d0:615 69.5333 $X=1.902 $Y=0.175 $X2=1.902 $Y2=0.127
R75 MN1@11:g d0:616 69.5333 $X=1.98 $Y=0.175 $X2=1.98 $Y2=0.223
R76 MN1@11:g d0:617 69.5333 $X=1.98 $Y=0.175 $X2=1.98 $Y2=0.127
R77 MN1@10:g d0:618 69.5333 $X=2.058 $Y=0.175 $X2=2.058 $Y2=0.223
R78 MN1@10:g d0:619 69.5333 $X=2.058 $Y=0.175 $X2=2.058 $Y2=0.127
R79 MN0@9:g d0:620 69.5333 $X=2.136 $Y=0.175 $X2=2.136 $Y2=0.223
R80 MN0@9:g d0:621 69.5333 $X=2.136 $Y=0.175 $X2=2.136 $Y2=0.127
R81 MN0@8:g d0:622 69.5333 $X=2.214 $Y=0.175 $X2=2.214 $Y2=0.223
R82 MN0@8:g d0:623 69.5333 $X=2.214 $Y=0.175 $X2=2.214 $Y2=0.127
R83 MN1@9:g d0:624 69.5333 $X=2.292 $Y=0.175 $X2=2.292 $Y2=0.223
R84 MN1@9:g d0:625 69.5333 $X=2.292 $Y=0.175 $X2=2.292 $Y2=0.127
R85 MN1@8:g d0:643 69.5333 $X=2.37 $Y=0.175 $X2=2.37 $Y2=0.223
R86 MN1@8:g d0:644 69.5333 $X=2.37 $Y=0.175 $X2=2.37 $Y2=0.127
R87 MN0@7:g d0:645 69.5333 $X=2.448 $Y=0.175 $X2=2.448 $Y2=0.223
R88 MN0@7:g d0:646 69.5333 $X=2.448 $Y=0.175 $X2=2.448 $Y2=0.127
R89 MN0@6:g d0:647 69.5333 $X=2.526 $Y=0.175 $X2=2.526 $Y2=0.223
R90 MN0@6:g d0:648 69.5333 $X=2.526 $Y=0.175 $X2=2.526 $Y2=0.127
R91 MN1@7:g d0:649 69.5333 $X=2.604 $Y=0.175 $X2=2.604 $Y2=0.223
R92 MN1@7:g d0:650 69.5333 $X=2.604 $Y=0.175 $X2=2.604 $Y2=0.127
R93 MN1@6:g d0:651 69.5333 $X=2.682 $Y=0.175 $X2=2.682 $Y2=0.223
R94 MN1@6:g d0:652 69.5333 $X=2.682 $Y=0.175 $X2=2.682 $Y2=0.127
R95 MN0@5:g d0:653 69.5333 $X=2.76 $Y=0.175 $X2=2.76 $Y2=0.223
R96 MN0@5:g d0:654 69.5333 $X=2.76 $Y=0.175 $X2=2.76 $Y2=0.127
R97 MN0@4:g d0:655 69.5333 $X=2.838 $Y=0.175 $X2=2.838 $Y2=0.223
R98 MN0@4:g d0:656 69.5333 $X=2.838 $Y=0.175 $X2=2.838 $Y2=0.127
R99 MN1@5:g d0:657 69.5333 $X=2.916 $Y=0.175 $X2=2.916 $Y2=0.223
R100 MN1@5:g d0:658 69.5333 $X=2.916 $Y=0.175 $X2=2.916 $Y2=0.127
R101 MN1@4:g d0:659 69.5333 $X=2.994 $Y=0.175 $X2=2.994 $Y2=0.223
R102 MN1@4:g d0:660 69.5333 $X=2.994 $Y=0.175 $X2=2.994 $Y2=0.127
R103 MN0@3:g d0:661 69.5333 $X=3.072 $Y=0.175 $X2=3.072 $Y2=0.223
R104 MN0@3:g d0:662 69.5333 $X=3.072 $Y=0.175 $X2=3.072 $Y2=0.127
R105 MN0@2:g d0:663 69.5333 $X=3.15 $Y=0.175 $X2=3.15 $Y2=0.223
R106 MN0@2:g d0:664 69.5333 $X=3.15 $Y=0.175 $X2=3.15 $Y2=0.127
R107 MN1@3:g d0:665 69.5333 $X=3.228 $Y=0.175 $X2=3.228 $Y2=0.223
R108 MN1@3:g d0:666 69.5333 $X=3.228 $Y=0.175 $X2=3.228 $Y2=0.127
R109 MN1@2:g d0:667 69.5333 $X=3.306 $Y=0.175 $X2=3.306 $Y2=0.223
R110 MN1@2:g d0:668 69.5333 $X=3.306 $Y=0.175 $X2=3.306 $Y2=0.127
R111 d0:51 d0:380 0.53477 $X=0.303 $Y=0.304 $X2=0.276 $Y2=0.304
R112 d0:51 d0:385 0.725546 $X=0.303 $Y=0.304 $X2=0.342 $Y2=0.304
R113 d0:51 d0:633 0.876576 $X=0.303 $Y=0.304 $X2=0.303 $Y2=0.2555
R114 d0:52 d0:393 0.725546 $X=0.615 $Y=0.304 $X2=0.576 $Y2=0.304
R115 d0:52 d0:65 0.455281 $X=0.615 $Y=0.304 $X2=0.637 $Y2=0.304
R116 d0:52 d0:64 0.876576 $X=0.615 $Y=0.304 $X2=0.615 $Y2=0.2555
R117 d0:53 d0:404 0.359893 $X=0.919 $Y=0.304 $X2=0.935 $Y2=0.304
R118 d0:53 d0:403 0.545599 $X=0.919 $Y=0.304 $X2=0.888 $Y2=0.304