*|DSPF	1.5
*|DESIGN	nmos_cm_3
*|DATE	"Wed Jun 19 2024"
*|VENDOR	"Mentor Graphics Corporation"
*|PROGRAM	"Calibre xACT"
*|VERSION	"v2020.4_34.17"
*|DIVIDER	|
*|DELIMITER	:
*|BUSBIT	[]
* Corner Name: 12lp_11M_3Mx_4Cx_2Kx_2Gx_LB_nominal_detailed_25
* Nominal Temperature: 25C
* Circuit Temperature: 25C
* 

* Integrated TICER reduction is not enabled.
* SHORT DELAY THRESHOLD: 2e-14
* Fill Mode: NG
* PEX REDUCE CC ABSOLUTE : disabled
* PEX REDUCE CC RATIO : disabled
* Delta transform mode : 344834


.subckt nmos_cm_3 d0 d1 s
*
* d0 d0
* s s
* d1 d1
*
*|GROUND_NET 0
*
* Net Section
*


*|NET noxref_24 0.0771767f
*|I (X0_noxref:in X0_noxref in B 0.0 0.192 0.223)
*|S (noxref_24:2 0.18 0.223)
*|S (noxref_24:3 0.192 0.121)
*|S (noxref_24:4 0.192 0.325)
*|S (noxref_24:5 0.186 0.0935)
*|S (noxref_24:6 0.186 0.3785)
*|S (noxref_24:7 0.186 0.223)
*|S (noxref_24:8 0.192 0.127)
*|S (noxref_24:9 0.192 0.319)
*|S (noxref_24:10 0.186 0.223)
*|S (noxref_24:11 0.186 0.115)
*|S (noxref_24:12 0.186 0.331)
Cg_1 X0_noxref:in 0 6.63215e-20
Cg_2 noxref_24:2 0 0.000406359f
Cg_3 noxref_24:3 0 4.64849e-20
Cg_4 noxref_24:4 0 4.59116e-20
Cg_5 noxref_24:5 0 0.000548182f
Cg_6 noxref_24:6 0 0.000411319f
R1 X0_noxref:in noxref_24:7 3.53125 $X=0.192 $Y=0.223 $X2=0.186 $Y2=0.223
R2 X0_noxref:in noxref_24:8 904 $X=0.192 $Y=0.223 $X2=0.192 $Y2=0.127
R3 X0_noxref:in noxref_24:9 904 $X=0.192 $Y=0.223 $X2=0.192 $Y2=0.319
R4 noxref_24:2 noxref_24:7 3.13889 $X=0.18 $Y=0.223 $X2=0.186 $Y2=0.223
R5 noxref_24:2 noxref_24:10 3.13889 $X=0.18 $Y=0.223 $X2=0.186 $Y2=0.223
R6 noxref_24:2 noxref_24:11 1017 $X=0.18 $Y=0.223 $X2=0.186 $Y2=0.115
R7 noxref_24:2 noxref_24:12 1017 $X=0.18 $Y=0.223 $X2=0.186 $Y2=0.331
R8 noxref_24:3 noxref_24:8 56.5 $X=0.192 $Y=0.121 $X2=0.192 $Y2=0.127
R9 noxref_24:3 noxref_24:10 56.5 $X=0.192 $Y=0.121 $X2=0.186 $Y2=0.223
R10 noxref_24:3 noxref_24:11 56.5 $X=0.192 $Y=0.121 $X2=0.186 $Y2=0.115
R11 noxref_24:4 noxref_24:9 56.5 $X=0.192 $Y=0.325 $X2=0.192 $Y2=0.319
R12 noxref_24:4 noxref_24:10 56.5 $X=0.192 $Y=0.325 $X2=0.186 $Y2=0.223
R13 noxref_24:4 noxref_24:12 56.5 $X=0.192 $Y=0.325 $X2=0.186 $Y2=0.331
R14 noxref_24:5 noxref_24:11 60.9167 $X=0.186 $Y=0.0935 $X2=0.186 $Y2=0.115
R15 noxref_24:6 noxref_24:12 134.583 $X=0.186 $Y=0.3785 $X2=0.186 $Y2=0.331

*|NET noxref_28 0.0772046f
*|I (X1_noxref:in X1_noxref in B 0.0 1.818 0.223)
*|S (noxref_28:2 1.818 0.121)
*|S (noxref_28:3 1.818 0.325)
*|S (noxref_28:4 1.83 0.223)
*|S (noxref_28:5 1.824 0.0935)
*|S (noxref_28:6 1.824 0.3785)
*|S (noxref_28:7 1.818 0.127)
*|S (noxref_28:8 1.818 0.319)
*|S (noxref_28:9 1.824 0.223)
*|S (noxref_28:10 1.824 0.223)
*|S (noxref_28:11 1.824 0.115)
*|S (noxref_28:12 1.824 0.331)
Cg_7 X1_noxref:in 0 6.35902e-20
Cg_8 noxref_28:2 0 5.8328e-20
Cg_9 noxref_28:3 0 4.5508e-20
Cg_10 noxref_28:4 0 0.000429662f
Cg_11 noxref_28:5 0 0.000492214f
Cg_12 noxref_28:6 0 0.000515496f
Cc_13 noxref_28:4 d0:41 0.000427972f
Cc_14 noxref_28:6 d0:41 0.000656359f
Cc_15 noxref_28:5 d0:78 0.000381138f
Cc_16 noxref_28:6 d0:79 0.000252181f
Cc_17 noxref_28:2 d0:80 0.000104517f
Cc_18 noxref_28:4 d0:80 0.000350129f
Cc_19 noxref_28:5 d0:80 0.00382985f
Cc_20 noxref_28:3 d0:81 0.000121061f
Cc_21 noxref_28:4 d0:81 0.000156774f
Cc_22 noxref_28:6 d0:81 0.0060117f
Cc_23 noxref_28:4 d0:159 0.000645124f
Cc_24 noxref_28:6 d0:159 0.00359755f
R16 X1_noxref:in noxref_28:7 904 $X=1.818 $Y=0.223 $X2=1.818 $Y2=0.127
R17 X1_noxref:in noxref_28:8 904 $X=1.818 $Y=0.223 $X2=1.818 $Y2=0.319
R18 X1_noxref:in noxref_28:9 3.53125 $X=1.818 $Y=0.223 $X2=1.824 $Y2=0.223
R19 noxref_28:2 noxref_28:7 56.5 $X=1.818 $Y=0.121 $X2=1.818 $Y2=0.127
R20 noxref_28:2 noxref_28:10 56.5 $X=1.818 $Y=0.121 $X2=1.824 $Y2=0.223
R21 noxref_28:2 noxref_28:11 56.5 $X=1.818 $Y=0.121 $X2=1.824 $Y2=0.115
R22 noxref_28:3 noxref_28:8 56.5 $X=1.818 $Y=0.325 $X2=1.818 $Y2=0.319
R23 noxref_28:3 noxref_28:10 56.5 $X=1.818 $Y=0.325 $X2=1.824 $Y2=0.223
R24 noxref_28:3 noxref_28:12 56.5 $X=1.818 $Y=0.325 $X2=1.824 $Y2=0.331
R25 noxref_28:4 noxref_28:9 3.13889 $X=1.83 $Y=0.223 $X2=1.824 $Y2=0.223
R26 noxref_28:4 noxref_28:10 3.13889 $X=1.83 $Y=0.223 $X2=1.824 $Y2=0.223
R27 noxref_28:4 noxref_28:11 1017 $X=1.83 $Y=0.223 $X2=1.824 $Y2=0.115
R28 noxref_28:4 noxref_28:12 1017 $X=1.83 $Y=0.223 $X2=1.824 $Y2=0.331
R29 noxref_28:5 noxref_28:11 60.9167 $X=1.824 $Y=0.0935 $X2=1.824 $Y2=0.115
R30 noxref_28:6 noxref_28:12 134.583 $X=1.824 $Y=0.3785 $X2=1.824 $Y2=0.331

*|NET d0 3.1897f
*|P (d0 B 0.0 0.303 0.143)
*|I (MN0:g MN0 g B 0.0 0.264 0.223)
*|I (MN0@10:g MN0@10 g B 0.0 0.342 0.223)
*|I (MN1:g MN1 g B 0.0 0.42 0.223)
*|I (MN1@10:g MN1@10 g B 0.0 0.498 0.223)
*|I (MN0@9:g MN0@9 g B 0.0 0.576 0.223)
*|I (MN0@8:g MN0@8 g B 0.0 0.654 0.223)
*|I (MN1@9:g MN1@9 g B 0.0 0.732 0.223)
*|I (MN1@8:g MN1@8 g B 0.0 0.81 0.223)
*|I (MN0@7:g MN0@7 g B 0.0 0.888 0.223)
*|I (MN0@6:g MN0@6 g B 0.0 0.966 0.223)
*|I (MN1@7:g MN1@7 g B 0.0 1.044 0.223)
*|I (MN1@6:g MN1@6 g B 0.0 1.122 0.223)
*|I (MN0@5:g MN0@5 g B 0.0 1.2 0.223)
*|I (MN0@4:g MN0@4 g B 0.0 1.278 0.223)
*|I (MN1@5:g MN1@5 g B 0.0 1.356 0.223)
*|I (MN1@4:g MN1@4 g B 0.0 1.434 0.223)
*|I (MN0@3:g MN0@3 g B 0.0 1.512 0.223)
*|I (MN0@2:g MN0@2 g B 0.0 1.59 0.223)
*|I (MN1@3:g MN1@3 g B 0.0 1.668 0.223)
*|I (MN1@2:g MN1@2 g B 0.0 1.746 0.223)
*|I (MN0:d MN0 d B 0.0 0.2758 0.223)
*|I (MN0@9:d MN0@9 d B 0.0 0.5879 0.223)
*|I (MN0@7:d MN0@7 d B 0.0 0.8998 0.223)
*|I (MN0@5:d MN0@5 d B 0.0 1.2118 0.223)
*|I (MN0@3:d MN0@3 d B 0.0 1.5239 0.223)
*|I (MN0@10:d MN0@10 d B 0.0 0.3302 0.223)
*|I (MN0@8:d MN0@8 d B 0.0 0.6422 0.223)
*|I (MN0@6:d MN0@6 d B 0.0 0.9541 0.223)
*|I (MN0@4:d MN0@4 d B 0.0 1.2661 0.223)
*|I (MN0@2:d MN0@2 d B 0.0 1.5781 0.223)
*|S (d0:26 0.303 0.4)
*|S (d0:27 0.615 0.4)
*|S (d0:28 0.927 0.4)
*|S (d0:29 1.239 0.4)
*|S (d0:30 1.551 0.4)
*|S (d0:31 0.264 0.4)
*|S (d0:33 0.3275 0.4)
*|S (d0:34 0.615 0.3515)
*|S (d0:35 0.6795 0.4)
*|S (d0:36 0.927 0.3515)
*|S (d0:37 0.9545 0.4)
*|S (d0:38 1.239 0.3515)
*|S (d0:39 1.3065 0.4)
*|S (d0:40 1.551 0.3515)
*|S (d0:41 1.5815 0.4)
*|S (d0:42 0.264 0.0995)
*|S (d0:43 0.264 0.352)
*|S (d0:44 0.342 0.0995)
*|S (d0:45 0.342 0.352)
*|S (d0:46 0.42 0.0995)
*|S (d0:47 0.42 0.352)
*|S (d0:48 0.498 0.0995)
*|S (d0:49 0.498 0.352)
*|S (d0:50 0.576 0.0995)
*|S (d0:51 0.576 0.352)
*|S (d0:52 0.654 0.0995)
*|S (d0:53 0.654 0.352)
*|S (d0:54 0.732 0.0995)
*|S (d0:55 0.732 0.352)
*|S (d0:56 0.81 0.0995)
*|S (d0:57 0.81 0.352)
*|S (d0:58 0.888 0.0995)
*|S (d0:59 0.888 0.352)
*|S (d0:60 0.966 0.0995)
*|S (d0:61 0.966 0.352)
*|S (d0:62 1.044 0.0995)
*|S (d0:63 1.044 0.352)
*|S (d0:64 1.122 0.0995)
*|S (d0:65 1.122 0.352)
*|S (d0:66 1.2 0.0995)
*|S (d0:67 1.2 0.352)
*|S (d0:68 1.278 0.0995)
*|S (d0:69 1.278 0.352)
*|S (d0:70 1.356 0.0995)
*|S (d0:71 1.356 0.352)
*|S (d0:72 1.434 0.0995)
*|S (d0:73 1.434 0.352)
*|S (d0:74 1.512 0.0995)
*|S (d0:75 1.512 0.352)
*|S (d0:76 1.59 0.0995)
*|S (d0:77 1.59 0.352)
*|S (d0:78 1.668 0.0995)
*|S (d0:79 1.668 0.352)
*|S (d0:80 1.746 0.0995)
*|S (d0:81 1.746 0.352)
*|S (d0:82 0.303 0.223)
*|S (d0:83 0.615 0.223)
*|S (d0:84 0.927 0.223)
*|S (d0:85 1.239 0.223)
*|S (d0:86 1.551 0.223)
*|S (d0:154 0.303 0.223)
*|S (d0:155 0.615 0.223)
*|S (d0:156 0.927 0.223)
*|S (d0:157 1.239 0.223)
*|S (d0:158 1.551 0.223)
*|S (d0:159 0.2425 0.4)
*|S (d0:160 0.888 0.127)
*|S (d0:161 0.888 0.319)
*|S (d0:162 0.888 0.4)
*|S (d0:164 0.264 0.4)
*|S (d0:165 0.29 0.4)
*|S (d0:166 0.329 0.4)
*|S (d0:167 0.381 0.4)
*|S (d0:168 0.435 0.4)
*|S (d0:169 0.474 0.4)
*|S (d0:170 0.498 0.4)
*|S (d0:171 0.533 0.4)
*|S (d0:172 0.572 0.4)
*|S (d0:173 0.615 0.4)
*|S (d0:174 0.654 0.4)
*|S (d0:175 0.674 0.4)
*|S (d0:176 0.698 0.4)
*|S (d0:177 0.717 0.4)
*|S (d0:178 0.732 0.4)
*|S (d0:179 0.771 0.4)
*|S (d0:180 0.819 0.4)
*|S (d0:181 0.858 0.4)
*|S (d0:182 0.888 0.4)
*|S (d0:183 0.917 0.4)
*|S (d0:184 0.956 0.4)
*|S (d0:185 1.005 0.4)
*|S (d0:186 1.044 0.4)
*|S (d0:187 1.058 0.4)
*|S (d0:188 1.076 0.4)
*|S (d0:189 1.101 0.4)
*|S (d0:190 1.122 0.4)
*|S (d0:191 1.16 0.4)
*|S (d0:192 1.202 0.4)
*|S (d0:193 1.242 0.4)
*|S (d0:194 1.278 0.4)
*|S (d0:195 1.301 0.4)
*|S (d0:196 1.34 0.4)
*|S (d0:197 1.395 0.4)
*|S (d0:198 1.446 0.4)
*|S (d0:199 1.485 0.4)
*|S (d0:200 1.512 0.4)
*|S (d0:201 1.544 0.4)
*|S (d0:202 1.583 0.4)
*|S (d0:203 1.629 0.4)
*|S (d0:204 1.668 0.4)
*|S (d0:205 1.685 0.4)
*|S (d0:206 1.706 0.4)
*|S (d0:207 1.728 0.4)
*|S (d0:208 1.746 0.4)
*|S (d0:210 0.264 0.4)
*|S (d0:212 0.342 0.4)
*|S (d0:214 0.42 0.4)
*|S (d0:216 0.498 0.4)
*|S (d0:218 0.576 0.4)
*|S (d0:220 0.654 0.4)
*|S (d0:222 0.732 0.4)
*|S (d0:224 0.81 0.4)
*|S (d0:226 0.966 0.4)
*|S (d0:228 1.044 0.4)
*|S (d0:230 1.122 0.4)
*|S (d0:232 1.2 0.4)
*|S (d0:234 1.278 0.4)
*|S (d0:236 1.356 0.4)
*|S (d0:238 1.434 0.4)
*|S (d0:240 1.512 0.4)
*|S (d0:242 1.59 0.4)
*|S (d0:244 1.668 0.4)
*|S (d0:246 1.746 0.4)
*|S (d0:248 0.337 0.4)
*|S (d0:249 0.3515 0.4)
*|S (d0:250 0.381 0.4)
*|S (d0:251 0.4135 0.4)
*|S (d0:252 0.4365 0.4)
*|S (d0:253 0.4525 0.4)
*|S (d0:254 0.4685 0.4)
*|S (d0:255 0.498 0.4)
*|S (d0:256 0.537 0.4)
*|S (d0:257 0.5545 0.4)
*|S (d0:258 0.572 0.4)
*|S (d0:259 0.5935 0.4)
*|S (d0:260 0.6955 0.4)
*|S (d0:261 0.654 0.4)
*|S (d0:262 0.7115 0.4)
*|S (d0:263 0.7345 0.4)
*|S (d0:264 0.771 0.4)
*|S (d0:265 0.7975 0.4)
*|S (d0:266 0.8205 0.4)
*|S (d0:267 0.8365 0.4)
*|S (d0:268 0.8525 0.4)
*|S (d0:269 0.888 0.4)
*|S (d0:270 0.9775 0.4)
*|S (d0:271 1.005 0.4)
*|S (d0:272 1.0405 0.4)
*|S (d0:273 1.0635 0.4)
*|S (d0:274 1.0795 0.4)
*|S (d0:275 1.0955 0.4)
*|S (d0:276 1.122 0.4)
*|S (d0:277 1.161 0.4)
*|S (d0:278 1.1815 0.4)
*|S (d0:279 1.202 0.4)
*|S (d0:280 1.2205 0.4)
*|S (d0:281 1.3225 0.4)
*|S (d0:282 1.278 0.4)
*|S (d0:283 1.3385 0.4)
*|S (d0:284 1.3615 0.4)
*|S (d0:285 1.395 0.4)
*|S (d0:286 1.4245 0.4)
*|S (d0:287 1.4475 0.4)
*|S (d0:288 1.4635 0.4)
*|S (d0:289 1.4795 0.4)
*|S (d0:290 1.512 0.4)
*|S (d0:291 1.6045 0.4)
*|S (d0:292 1.629 0.4)
*|S (d0:293 1.6585 0.4)
*|S (d0:294 1.681 0.4)
*|S (d0:295 1.6905 0.4)
*|S (d0:296 1.7065 0.4)
*|S (d0:301 0.264 0.319)
*|S (d0:302 0.264 0.127)
*|S (d0:303 0.342 0.319)
*|S (d0:304 0.342 0.127)
*|S (d0:305 0.42 0.319)
*|S (d0:306 0.42 0.127)
*|S (d0:307 0.498 0.319)
*|S (d0:308 0.498 0.127)
*|S (d0:309 0.576 0.319)
*|S (d0:310 0.576 0.127)
*|S (d0:311 0.654 0.319)
*|S (d0:312 0.654 0.127)
*|S (d0:313 0.732 0.319)
*|S (d0:314 0.732 0.127)
*|S (d0:315 0.81 0.319)
*|S (d0:316 0.81 0.127)
*|S (d0:317 0.966 0.319)
*|S (d0:318 0.966 0.127)
*|S (d0:319 1.044 0.319)
*|S (d0:320 1.044 0.127)
*|S (d0:321 1.122 0.319)
*|S (d0:322 1.122 0.127)
*|S (d0:323 1.2 0.319)
*|S (d0:324 1.2 0.127)
*|S (d0:325 1.278 0.319)
*|S (d0:326 1.278 0.127)
*|S (d0:327 1.356 0.319)
*|S (d0:328 1.356 0.127)
*|S (d0:329 1.434 0.319)
*|S (d0:330 1.434 0.127)
*|S (d0:331 1.512 0.319)
*|S (d0:332 1.512 0.127)
*|S (d0:333 1.59 0.319)
*|S (d0:334 1.59 0.127)
*|S (d0:335 1.668 0.319)
*|S (d0:336 1.668 0.127)
*|S (d0:337 1.746 0.319)
*|S (d0:338 1.746 0.127)
*|S (d0:342 0.303 0.3515)
*|S (d0:343 0.303 0.1437)
*|S (d0:344 0.303 0.16)
*|S (d0:345 0.303 0.223)
*|S (d0:346 0.303 0.286)
*|S (d0:347 0.303 0.3105)
*|S (d0:349 0.615 0.16)
*|S (d0:350 0.615 0.223)
*|S (d0:351 0.615 0.286)
*|S (d0:352 0.615 0.3105)
*|S (d0:354 0.927 0.16)
*|S (d0:355 0.927 0.223)
*|S (d0:356 0.927 0.286)
*|S (d0:357 0.927 0.3105)
*|S (d0:359 1.239 0.16)
*|S (d0:360 1.239 0.223)
*|S (d0:361 1.239 0.286)
*|S (d0:362 1.239 0.3105)
*|S (d0:364 1.551 0.16)
*|S (d0:365 1.551 0.223)
*|S (d0:366 1.551 0.286)
*|S (d0:367 1.551 0.3105)
Cg_25 MN0:g 0 5.03229e-25
Cg_26 MN0@10:g 0 0.000535868f
Cg_27 MN1:g 0 9.71289e-25
Cg_28 MN1@10:g 0 1.02421e-24
Cg_29 MN0@9:g 0 5.38223e-25
Cg_30 MN0@8:g 0 0.000871286f
Cg_31 MN1@9:g 0 9.83873e-25
Cg_32 MN1@8:g 0 1.02395e-24
Cg_33 MN0@7:g 0 5.38223e-25
Cg_34 MN0@6:g 0 0.000871286f
Cg_35 MN1@7:g 0 9.83874e-25
Cg_36 MN1@6:g 0 1.02415e-24
Cg_37 MN0@5:g 0 5.38225e-25
Cg_38 MN0@4:g 0 0.000871286f
Cg_39 MN1@5:g 0 9.83873e-25
Cg_40 MN1@4:g 0 1.02396e-24
Cg_41 MN0@3:g 0 5.38223e-25
Cg_42 MN0@2:g 0 0.000871292f
Cg_43 MN1@3:g 0 9.83787e-25
Cg_44 MN1@2:g 0 1.09573e-24
Cg_45 MN0:d 0 0.000104984f
Cg_46 MN0@9:d 0 0.000119367f
Cg_47 MN0@7:d 0 5.89299e-20
Cg_48 MN0@5:d 0 7.46573e-20
Cg_49 MN0@3:d 0 6.35734e-27
Cg_50 d0:26 0 0.00205688f
Cg_51 d0:27 0 0.00162987f
Cg_52 d0:28 0 0.00158543f
Cg_53 d0:29 0 0.0015558f
Cg_54 d0:30 0 0.00151135f
Cg_55 d0:31 0 0.00765315f
Cg_56 d0 0 0.0192149f
Cg_57 d0:33 0 0.0192772f
Cg_58 d0:34 0 0.0187694f
Cg_59 d0:35 0 0.0195742f
Cg_60 d0:36 0 0.0176529f
Cg_61 d0:37 0 0.0244194f
Cg_62 d0:38 0 0.0187503f
Cg_63 d0:39 0 0.0199957f
Cg_64 d0:40 0 0.0201272f
Cg_65 d0:41 0 0.0153914f
Cg_66 d0:42 0 0.000714551f
Cg_67 d0:43 0 0.00108052f
Cg_68 d0:44 0 0.000710341f
Cg_69 d0:45 0 0.000927338f
Cg_70 d0:46 0 0.00124238f
Cg_71 d0:47 0 0.00143742f
Cg_72 d0:48 0 0.00126944f
Cg_73 d0:49 0 0.00164794f
Cg_74 d0:50 0 0.000638924f
Cg_75 d0:51 0 0.00104861f
Cg_76 d0:52 0 0.000641231f
Cg_77 d0:53 0 0.00106647f
Cg_78 d0:54 0 0.00126944f
Cg_79 d0:55 0 0.00165987f
Cg_80 d0:56 0 0.00124238f
Cg_81 d0:57 0 0.00166094f
Cg_82 d0:58 0 0.000639896f
Cg_83 d0:59 0 0.00106611f
Cg_84 d0:60 0 0.000641232f
Cg_85 d0:61 0 0.00106285f
Cg_86 d0:62 0 0.00126944f
Cg_87 d0:63 0 0.00184171f
Cg_88 d0:64 0 0.00124238f
Cg_89 d0:65 0 0.00156851f
Cg_90 d0:66 0 0.000640027f
Cg_91 d0:67 0 0.00105376f
Cg_92 d0:68 0 0.000641268f
Cg_93 d0:69 0 0.00104892f
Cg_94 d0:70 0 0.00125069f
Cg_95 d0:71 0 0.00165943f
Cg_96 d0:72 0 0.00124238f
Cg_97 d0:73 0 0.00165752f
Cg_98 d0:74 0 0.000640185f
Cg_99 d0:75 0 0.00104953f
Cg_100 d0:76 0 0.000700544f
Cg_101 d0:77 0 0.000951236f
Cg_102 d0:78 0 0.00137019f
Cg_103 d0:79 0 0.0015517f
Cg_104 d0:80 0 0.00128299f
Cg_105 d0:81 0 0.00173364f
Cg_106 d0:82 0 0.000270077f
Cg_107 d0:83 0 0.000253496f
Cg_108 d0:84 0 0.000253502f
Cg_109 d0:85 0 0.000253496f
Cg_110 d0:86 0 0.000253496f
Cg_111 d0:154 0 0.000731842f
Cg_112 d0:155 0 0.000856781f
Cg_113 d0:156 0 0.000857534f
Cg_114 d0:157 0 0.000856532f
Cg_115 d0:158 0 0.000858525f
Cg_116 d0:159 0 0.0130371f
Cc_117 MN0:d noxref_24:2 0.000730223f
Cc_118 d0:31 noxref_24:2 0.000403681f
Cc_119 d0:43 noxref_24:2 0.000154361f
Cc_120 d0:159 noxref_24:2 0.000789485f
Cc_121 d0:42 noxref_24:3 0.000117015f
Cc_122 d0:43 noxref_24:4 0.000128358f
Cc_123 d0:42 noxref_24:5 0.00392398f
Cc_124 d0:44 noxref_24:5 0.0001726f
Cc_125 d0:31 noxref_24:6 0.000461866f
Cc_126 d0:43 noxref_24:6 0.00617063f
Cc_127 d0:45 noxref_24:6 0.000166672f
Cc_128 d0:159 noxref_24:6 0.0037116f
R31 MN0:g d0:301 139.067 $X=0.264 $Y=0.223 $X2=0.264 $Y2=0.319
R32 MN0:g d0:302 139.067 $X=0.264 $Y=0.223 $X2=0.264 $Y2=0.127
R33 MN0@10:g d0:303 139.067 $X=0.342 $Y=0.223 $X2=0.342 $Y2=0.319
R34 MN0@10:g d0:304 139.067 $X=0.342 $Y=0.223 $X2=0.342 $Y2=0.127
R35 MN1:g d0:305 139.067 $X=0.42 $Y=0.223 $X2=0.42 $Y2=0.319
R36 MN1:g d0:306 139.067 $X=0.42 $Y=0.223 $X2=0.42 $Y2=0.127
R37 MN1@10:g d0:307 139.067 $X=0.498 $Y=0.223 $X2=0.498 $Y2=0.319
R38 MN1@10:g d0:308 139.067 $X=0.498 $Y=0.223 $X2=0.498 $Y2=0.127
R39 MN0@9:g d0:309 139.067 $X=0.576 $Y=0.223 $X2=0.576 $Y2=0.319
R40 MN0@9:g d0:310 139.067 $X=0.576 $Y=0.223 $X2=0.576 $Y2=0.127
R41 MN0@8:g d0:311 139.067 $X=0.654 $Y=0.223 $X2=0.654 $Y2=0.319
R42 MN0@8:g d0:312 139.067 $X=0.654 $Y=0.223 $X2=0.654 $Y2=0.127
R43 MN1@9:g d0:313 139.067 $X=0.732 $Y=0.223 $X2=0.732 $Y2=0.319
R44 MN1@9:g d0:314 139.067 $X=0.732 $Y=0.223 $X2=0.732 $Y2=0.127
R45 MN1@8:g d0:315 139.067 $X=0.81 $Y=0.223 $X2=0.81 $Y2=0.319
R46 MN1@8:g d0:316 139.067 $X=0.81 $Y=0.223 $X2=0.81 $Y2=0.127
R47 MN0@7:g d0:160 139.067 $X=0.888 $Y=0.223 $X2=0.888 $Y2=0.127
R48 MN0@7:g d0:161 139.067 $X=0.888 $Y=0.223 $X2=0.888 $Y2=0.319
R49 MN0@6:g d0:317 139.067 $X=0.966 $Y=0.223 $X2=0.966 $Y2=0.319
R50 MN0@6:g d0:318 139.067 $X=0.966 $Y=0.223 $X2=0.966 $Y2=0.127
R51 MN1@7:g d0:319 139.067 $X=1.044 $Y=0.223 $X2=1.044 $Y2=0.319
R52 MN1@7:g d0:320 139.067 $X=1.044 $Y=0.223 $X2=1.044 $Y2=0.127
R53 MN1@6:g d0:321 139.067 $X=1.122 $Y=0.223 $X2=1.122 $Y2=0.319
R54 MN1@6:g d0:322 139.067 $X=1.122 $Y=0.223 $X2=1.122 $Y2=0.127
R55 MN0@5:g d0:323 139.067 $X=1.2 $Y=0.223 $X2=1.2 $Y2=0.319
R56 MN0@5:g d0:324 139.067 $X=1.2 $Y=0.223 $X2=1.2 $Y2=0.127
R57 MN0@4:g d0:325 139.067 $X=1.278 $Y=0.223 $X2=1.278 $Y2=0.319
R58 MN0@4:g d0:326 139.067 $X=1.278 $Y=0.223 $X2=1.278 $Y2=0.127
R59 MN1@5:g d0:327 139.067 $X=1.356 $Y=0.223 $X2=1.356 $Y2=0.319
R60 MN1@5:g d0:328 139.067 $X=1.356 $Y=0.223 $X2=1.356 $Y2=0.127
R61 MN1@4:g d0:329 139.067 $X=1.434 $Y=0.223 $X2=1.434 $Y2=0.319
R62 MN1@4:g d0:330 139.067 $X=1.434 $Y=0.223 $X2=1.434 $Y2=0.127
R63 MN0@3:g d0:331 139.067 $X=1.512 $Y=0.223 $X2=1.512 $Y2=0.319
R64 MN0@3:g d0:332 139.067 $X=1.512 $Y=0.223 $X2=1.512 $Y2=0.127
R65 MN0@2:g d0:333 139.067 $X=1.59 $Y=0.223 $X2=1.59 $Y2=0.319
R66 MN0@2:g d0:334 139.067 $X=1.59 $Y=0.223 $X2=1.59 $Y2=0.127
R67 MN1@3:g d0:335 139.067 $X=1.668 $Y=0.223 $X2=1.668 $Y2=0.319
R68 MN1@3:g d0:336 139.067 $X=1.668 $Y=0.223 $X2=1.668 $Y2=0.127
R69 MN1@2:g d0:337 139.067 $X=1.746 $Y=0.223 $X2=1.746 $Y2=0.319
R70 MN1@2:g d0:338 139.067 $X=1.746 $Y=0.223 $X2=1.746 $Y2=0.127
R71 d0:26 d0:33 0.495025 $X=0.303 $Y=0.4 $X2=0.3275 $Y2=0.4
R72 d0:26 d0:31 0.725546 $X=0.303 $Y=0.4 $X2=0.264 $Y2=0.4
R73 d0:26 d0:342 0.876576 $X=0.303 $Y=0.4 $X2=0.303 $Y2=0.3515
R74 d0:27 d0:259 0.447332 $X=0.615 $Y=0.4 $X2=0.5935 $Y2=0.4
R75 d0:27 d0:261 0.725546 $X=0.615 $Y=0.4 $X2=0.654 $Y2=0.4
R76 d0:27 d0:34 0.876576 $X=0.615 $Y=0.4 $X2=0.615 $Y2=0.3515
R77 d0:28 d0:269 0.725546 $X=0.927 $Y=0.4 $X2=0.888 $Y2=0.4
R78 d0:28 d0:37 0.542719 $X=0.927 $Y=0.4 $X2=0.9545 $Y2=0.4
R79 d0:28 d0:36 0.876576 $X=0.927 $Y=0.4 $X2=0.927 $Y2=0.3515
R80 d0:29 d0:280 0.399638 $X=1.239 $Y=0.4 $X2=1.2205 $Y2=0.4
R81 d0:29 d0:282 0.725546 $X=1.239 $Y=0.4 $X2=1.278 $Y2=0.4
R82 d0:29 d0:38 0.876576 $X=1.239 $Y=0.4 $X2=1.239 $Y2=0.3515
R83 d0:30 d0:290 0.725546 $X=1.551 $Y=0.4 $X2=1.512 $Y2=0.4
R84 d0:30 d0:41 0.590413 $X=1.551 $Y=0.4 $X2=1.5815 $Y2=0.4
R85 d0:30 d0:40 0.876576 $X=1.551 $Y=0.4 $X2=1.551 $Y2=0.3515
R86 d0 d0:343 0.0151672 $X=0.303 $Y=0.143 $X2=0.303 $Y2=0.1437
R87 d0:33 d0:248 0.151031 $X=0.3275 $Y=0.4 $X2=0.337 $Y2=0.4
R88 d0:33 d0:166 14.9333 $X=0.3275 $Y=0.4 $X2=0.329 $Y2=0.4
R89 d0:34 d0:352 0.688578 $X=0.615 $Y=0.3515 $X2=0.615 $Y2=0.3105
R90 d0:35 d0:260 0.285986 $X=0.6795 $Y=0.4 $X2=0.6955 $Y2=0.4
R91 d0:35 d0:261 0.410338 $X=0.6795 $Y=0.4 $X2=0.654 $Y2=0.4
R92 d0:36 d0:357 0.688578 $X=0.927 $Y=0.3515 $X2=0.927 $Y2=0.3105
R93 d0:37 d0:270 0.365653 $X=0.9545 $Y=0.4 $X2=0.9775 $Y2=0.4
R94 d0:37 d0:184 14.9333 $X=0.9545 $Y=0.4 $X2=0.956 $Y2=0.4
R95 d0:38 d0:362 0.688578 $X=1.239 $Y=0.3515 $X2=1.239 $Y2=0.3105
R96 d0:39 d0:281 0.285986 $X=1.3065 $Y=0.4 $X2=1.3225 $Y2=0.4
R97 d0:39 d0:282 0.46396 $X=1.3065 $Y=0.4 $X2=1.278 $Y2=0.4
R98 d0:40 d0:367 0.688578 $X=1.551 $Y=0.3515 $X2=1.551 $Y2=0.3105
R99 d0:41 d0:291 0.365653 $X=1.5815 $Y=0.4 $X2=1.6045 $Y2=0.4
R100 d0:41 d0:202 14.9333 $X=1.5815 $Y=0.4 $X2=1.583 $Y2=0.4
R101 d0:42 d0:302 77.9167 $X=0.264 $Y=0.0995 $X2=0.264 $Y2=0.127
R102 d0:43 d0:210 136 $X=0.264 $Y=0.352 $X2=0.264 $Y2=0.4
R103 d0:43 d0:301 93.5 $X=0.264 $Y=0.352 $X2=0.264 $Y2=0.319
R104 d0:44 d0:304 77.9167 $X=0.342 $Y=0.0995 $X2=0.342 $Y2=0.127
R105 d0:45 d0:212 136 $X=0.342 $Y=0.352 $X2=0.342 $Y2=0.4
R106 d0:45 d0:303 93.5 $X=0.342 $Y=0.352 $X2=0.342 $Y2=0.319
R107 d0:46 d0:306 77.9167 $X=0.42 $Y=0.0995 $X2=0.42 $Y2=0.127
R108 d0:47 d0:214 136 $X=0.42 $Y=0.352 $X2=0.42 $Y2=0.4
R109 d0:47 d0:305 93.5 $X=0.42 $Y=0.352 $X2=0.42 $Y2=0.319
R110 d0:48 d0:308 77.9167 $X=0.498 $Y=0.0995 $X2=0.498 $Y2=0.127
R111 d0:49 d0:216 136 $X=0.498 $Y=0.352 $X2=0.498 $Y2=0.4
R112 d0:49 d0:307 93.5 $X=0.498 $Y=0.352 $X2=0.498 $Y2=0.319
R113 d0:50 d0:310 77.9167 $X=0.576 $Y=0.0995 $X2=0.576 $Y2=0.127
R114 d0:51 d0:218 136 $X=0.576 $Y=0.352 $X2=0.576 $Y2=0.4
R115 d0:51 d0:309 93.5 $X=0.576 $Y=0.352 $X2=0.576 $Y2=0.319
R116 d0:52 d0:312 77.9167 $X=0.654 $Y=0.0995 $X2=0.654 $Y2=0.127
R117 d0:53 d0:220 136 $X=0.654 $Y=0.352 $X2=0.654 $Y2=0.4
R118 d0:53 d0:311 93.5 $X=0.654 $Y=0.352 $X2=0.654 $Y2=0.319
R119 d0:54 d0:314 77.9167 $X=0.732 $Y=0.0995 $X2=0.732 $Y2=0.127
R120 d0:55 d0:222 136 $X=0.732 $Y=0.352 $X2=0.732 $Y2=0.4
R121 d0:55 d0:313 93.5 $X=0.732 $Y=0.352 $X2=0.732 $Y2=0.319
R122 d0:56 d0:316 77.9167 $X=0.81 $Y=0.0995 $X2=0.81 $Y2=0.127
R123 d0:57 d0:224 136 $X=0.81 $Y=0.352 $X2=0.81 $Y2=0.4
R124 d0:57 d0:315 93.5 $X=0.81 $Y=0.352 $X2=0.81 $Y2=0.319
R125 d0:58 d0:160 77.9167 $X=0.888 $Y=0.0995 $X2=0.888 $Y2=0.127
R126 d0:59 d0:162 136 $X=0.888 $Y=0.352 $X2=0.888 $Y2=0.4
R127 d0:59 d0:161 93.5 $X=0.888 $Y=0.352 $X2=0.888 $Y2=0.319
R128 d0:60 d0:318 77.9167 $X=0.966 $Y=0.0995 $X2=0.966 $Y2=0.127
R129 d0:61 d0:226 136 $X=0.966 $Y=0.352 $X2=0.966 $Y2=0.4
R130 d0:61 d0:317 93.5 $X=0.966 $Y=0.352 $X2=0.966 $Y2=0.319
R131 d0:62 d0:320 77.9167 $X=1.044 $Y=0.0995 $X2=1.044 $Y2=0.127
R132 d0:63 d0:228 136 $X=1.044 $Y=0.352 $X2=1.044 $Y2=0.4
R133 d0:63 d0:319 93.5 $X=1.044 $Y=0.352 $X2=1.044 $Y2=0.319
R134 d0:64 d0:322 77.9167 $X=1.122 $Y=0.0995 $X2=1.122 $Y2=0.127
R135 d0:65 d0:230 136 $X=1.122 $Y=0.352 $X2=1.122 $Y2=0.4
R136 d0:65 d0:321 93.5 $X=1.122 $Y=0.352 $X2=1.122 $Y2=0.319
R137 d0:66 d0:324 77.9167 $X=1.2 $Y=0.0995 $X2=1.2 $Y2=0.127
R138 d0:67 d0:232 136 $X=1.2 $Y=0.352 $X2=1.2 $Y2=0.4
R139 d0:67 d0:323 93.5 $X=1.2 $Y=0.352 $X2=1.2 $Y2=0.319
R140 d0:68 d0:326 77.9167 $X=1.278 $Y=0.0995 $X2=1.278 $Y2=0.127
R141 d0:69 d0:234 136 $X=1.278 $Y=0.352 $X2=1.278 $Y2=0.4
R142 d0:69 d0:325 93.5 $X=1.278 $Y=0.352 $X2=1.278 $Y2=0.319
R143 d0:70 d0:328 77.9167 $X=1.356 $Y=0.0995 $X2=1.356 $Y2=0.127
R144 d0:71 d0:236 136 $X=1.356 $Y=0.352 $X2=1.356 $Y2=0.4
R145 d0:71 d0:327 93.5 $X=1.356 $Y=0.352 $X2=1.356 $Y2=0.319
R146 d0:72 d0:330 77.9167 $X=1.434 $Y=0.0995 $X2=1.434 $Y2=0.127
R147 d0:73 d0:238 136 $X=1.434 $Y=0.352 $X2=1.434 $Y2=0.4
R148 d0:73 d0:329 93.5 $X=1.434 $Y=0.352 $X2=1.434 $Y2=0.319
R149 d0:74 d0:332 77.9167 $X=1.512 $Y=0.0995 $X2=1.512 $Y2=0.127
R150 d0:75 d0:240 136 $X=1.512 $Y=0.352 $X2=1.512 $Y2=0.4
R151 d0:75 d0:331 93.5 $X=1.512 $Y=0.352 $X2=1.512 $Y2=0.319
R152 d0:76 d0:334 77.9167 $X=1.59 $Y=0.0995 $X2=1.59 $Y2=0.127
R153 d0:77 d0:242 136 $X=1.59 $Y=0.352 $X2=1.59 $Y2=0.4
R154 d0:77 d0:333 93.5 $X=1.59 $Y=0.352 $X2=1.59 $Y2=0.319
R155 d0:78 d0:336 77.9167 $X=1.668 $Y=0.0995 $X2=1.668 $Y2=0.127
R156 d0:79 d0:244 136 $X=1.668 $Y=0.352 $X2=1.668 $Y2=0.4
R157 d0:79 d0:335 93.5 $X=1.668 $Y=0.352 $X2=1.668 $Y2=0.319
R158 d0:80 d0:338 77.9167 $X=1.746 $Y=0.0995 $X2=1.746 $Y2=0.127
R159 d0:81 d0:246 136 $X=1.746 $Y=0.352 $X2=1.746 $Y2=0.4
R160 d0:81 d0:337 93.5 $X=1.746 $Y=0.352 $X2=1.746 $Y2=0.319
R161 d0:82 d0:154 5.63545 $X=0.303 $Y=0.223 $X2=0.303 $Y2=0.223
R162 d0:82 MN0@10:d 73.5025 $X=0.303 $Y=0.223 $X2=0.3301 $Y2=0.223
R163 d0:83 d0:155 5.63545 $X=0.615 $Y=0.223 $X2=0.615 $Y2=0.223
R164 d0:83 MN0@8:d 73.5025 $X=0.615 $Y=0.223 $X2=0.6421 $Y2=0.223
R165 d0:84 d0:156 5.63545 $X=0.927 $Y=0.223 $X2=0.927 $Y2=0.223
R166 d0:84 MN0@6:d 73.5025 $X=0.927 $Y=0.223 $X2=0.9541 $Y2=0.223
R167 d0:85 d0:157 5.63545 $X=1.239 $Y=0.223 $X2=1.239 $Y2=0.223
R168 d0:85 MN0@4:d 73.5025 $X=1.239 $Y=0.223 $X2=1.2661 $Y2=0.223
R169 d0:86 d0:158 5.63545 $X=1.551 $Y=0.223 $X2=1.551 $Y2=0.223
R170 d0:86 MN0@2:d 73.5025 $X=1.551 $Y=0.223 $X2=1.5781 $Y2=0.223
R171 d0:154 d0:344 14 $X=0.303 $Y=0.223 $X2=0.303 $Y2=0.16
R172 d0:154 d0:346 14 $X=0.303 $Y=0.223 $X2=0.303 $Y2=0.286
R173 d0:155 d0:349 14 $X=0.615 $Y=0.223 $X2=0.615 $Y2=0.16
R174 d0:155 d0:351 14 $X=0.615 $Y=0.223 $X2=0.615 $Y2=0.286
R175 d0:156 d0:354 14 $X=0.927 $Y=0.223 $X2=0.927 $Y2=0.16
R176 d0:156 d0:356 14 $X=0.927 $Y=0.223 $X2=0.927 $Y2=0.286
R177 d0:157 d0:359 14 $X=1.239 $Y=0.223 $X2=1.239 $Y2=0.16
R178 d0:157 d0:361 14 $X=1.239 $Y=0.223 $X2=1.239 $Y2=0.286
R179 d0:158 d0:364 14 $X=1.551 $Y=0.223 $X2=1.551 $Y2=0.16
R180 d0:158 d0:366 14 $X=1.551 $Y=0.223 $X2=1.551 $Y2=0.286
R181 d0:159 d0:164 3.01 $X=0.2425 $Y=0.4 $X2=0.264 $Y2=0.4
R182 d0:162 d0:182 79.832 $X=0.888 $Y=0.4 $X2=0.888 $Y2=0.4
R183 d0:164 d0:165 3.64 $X=0.264 $Y=0.4 $X2=0.29 $Y2=0.4
R184 d0:164 d0:210 79.832 $X=0.264 $Y=0.4 $X2=0.264 $Y2=0.4
R185 d0:165 d0:166 5.46 $X=0.29 $Y=0.4 $X2=0.329 $Y2=0.4
R186 d0:166 d0:167 7.28 $X=0.329 $Y=0.4 $X2=0.381 $Y2=0.4
R187 d0:166 d0:212 79.832 $X=0.329 $Y=0.4 $X2=0.342 $Y2=0.4
R188 d0:167 d0:168 7.56 $X=0.381 $Y=0.4 $X2=0.435 $Y2=0.4
R189 d0:168 d0:169 5.46 $X=0.435 $Y=0.4 $X2=0.474 $Y2=0.4
R190 d0:168 d0:214 79.832 $X=0.435 $Y=0.4 $X2=0.42 $Y2=0.4
R191 d0:168 d0:253 14.9333 $X=0.435 $Y=0.4 $X2=0.4525 $Y2=0.4
R192 d0:169 d0:170 3.36 $X=0.474 $Y=0.4 $X2=0.498 $Y2=0.4
R193 d0:170 d0:171 4.9 $X=0.498 $Y=0.4 $X2=0.533 $Y2=0.4
R194 d0:170 d0:216 79.832 $X=0.498 $Y=0.4 $X2=0.498 $Y2=0.4
R195 d0:171 d0:172 5.46 $X=0.533 $Y=0.4 $X2=0.572 $Y2=0.4
R196 d0:172 d0:173 6.02 $X=0.572 $Y=0.4 $X2=0.615 $Y2=0.4
R197 d0:172 d0:218 79.832 $X=0.572 $Y=0.4 $X2=0.576 $Y2=0.4
R198 d0:172 d0:258 14.9333 $X=0.572 $Y=0.4 $X2=0.572 $Y2=0.4
R199 d0:173 d0:174 5.46 $X=0.615 $Y=0.4 $X2=0.654 $Y2=0.4
R200 d0:174 d0:175 2.8 $X=0.654 $Y=0.4 $X2=0.674 $Y2=0.4
R201 d0:174 d0:220 79.832 $X=0.654 $Y=0.4 $X2=0.654 $Y2=0.4
R202 d0:175 d0:176 3.36 $X=0.674 $Y=0.4 $X2=0.698 $Y2=0.4
R203 d0:176 d0:177 2.66 $X=0.698 $Y=0.4 $X2=0.717 $Y2=0.4
R204 d0:176 d0:260 14.9333 $X=0.698 $Y=0.4 $X2=0.6955 $Y2=0.4
R205 d0:177 d0:178 2.1 $X=0.717 $Y=0.4 $X2=0.732 $Y2=0.4
R206 d0:178 d0:179 5.46 $X=0.732 $Y=0.4 $X2=0.771 $Y2=0.4
R207 d0:178 d0:222 79.832 $X=0.732 $Y=0.4 $X2=0.732 $Y2=0.4
R208 d0:179 d0:180 6.72 $X=0.771 $Y=0.4 $X2=0.819 $Y2=0.4
R209 d0:180 d0:181 5.46 $X=0.819 $Y=0.4 $X2=0.858 $Y2=0.4
R210 d0:180 d0:224 79.832 $X=0.819 $Y=0.4 $X2=0.81 $Y2=0.4
R211 d0:180 d0:266 14.9333 $X=0.819 $Y=0.4 $X2=0.8205 $Y2=0.4
R212 d0:181 d0:182 4.2 $X=0.858 $Y=0.4 $X2=0.888 $Y2=0.4
R213 d0:182 d0:183 4.06 $X=0.888 $Y=0.4 $X2=0.917 $Y2=0.4
R214 d0:183 d0:184 5.46 $X=0.917 $Y=0.4 $X2=0.956 $Y2=0.4
R215 d0:184 d0:185 6.86 $X=0.956 $Y=0.4 $X2=1.005 $Y2=0.4
R216 d0:184 d0:226 79.832 $X=0.956 $Y=0.4 $X2=0.966 $Y2=0.4
R217 d0:185 d0:186 5.46 $X=1.005 $Y=0.4 $X2=1.044 $Y2=0.4
R218 d0:186 d0:187 1.96 $X=1.044 $Y=0.4 $X2=1.058 $Y2=0.4
R219 d0:186 d0:228 79.832 $X=1.044 $Y=0.4 $X2=1.044 $Y2=0.4
R220 d0:187 d0:188 2.52 $X=1.058 $Y=0.4 $X2=1.076 $Y2=0.4
R221 d0:188 d0:189 3.5 $X=1.076 $Y=0.4 $X2=1.101 $Y2=0.4
R222 d0:188 d0:274 14.9333 $X=1.076 $Y=0.4 $X2=1.0795 $Y2=0.4
R223 d0:189 d0:190 2.94 $X=1.101 $Y=0.4 $X2=1.122 $Y2=0.4
R224 d0:190 d0:191 5.32 $X=1.122 $Y=0.4 $X2=1.16 $Y2=0.4
R225 d0:190 d0:230 79.832 $X=1.122 $Y=0.4 $X2=1.122 $Y2=0.4
R226 d0:191 d0:192 5.88 $X=1.16 $Y=0.4 $X2=1.202 $Y2=0.4
R227 d0:192 d0:193 5.6 $X=1.202 $Y=0.4 $X2=1.242 $Y2=0.4
R228 d0:192 d0:232 79.832 $X=1.202 $Y=0.4 $X2=1.2 $Y2=0.4
R229 d0:192 d0:279 14.9333 $X=1.202 $Y=0.4 $X2=1.202 $Y2=0.4
R230 d0:193 d0:194 5.04 $X=1.242 $Y=0.4 $X2=1.278 $Y2=0.4
R231 d0:194 d0:195 3.22 $X=1.278 $Y=0.4 $X2=1.301 $Y2=0.4
R232 d0:194 d0:234 79.832 $X=1.278 $Y=0.4 $X2=1.278 $Y2=0.4
R233 d0:195 d0:196 5.46 $X=1.301 $Y=0.4 $X2=1.34 $Y2=0.4
R234 d0:196 d0:197 7.7 $X=1.34 $Y=0.4 $X2=1.395 $Y2=0.4
R235 d0:196 d0:236 79.832 $X=1.34 $Y=0.4 $X2=1.356 $Y2=0.4
R236 d0:196 d0:281 14.9333 $X=1.34 $Y=0.4 $X2=1.3225 $Y2=0.4
R237 d0:197 d0:198 7.14 $X=1.395 $Y=0.4 $X2=1.446 $Y2=0.4
R238 d0:198 d0:199 5.46 $X=1.446 $Y=0.4 $X2=1.485 $Y2=0.4
R239 d0:198 d0:238 79.832 $X=1.446 $Y=0.4 $X2=1.434 $Y2=0.4
R240 d0:198 d0:287 14.9333 $X=1.446 $Y=0.4 $X2=1.4475 $Y2=0.4
R241 d0:199 d0:200 3.78 $X=1.485 $Y=0.4 $X2=1.512 $Y2=0.4
R242 d0:200 d0:201 4.48 $X=1.512 $Y=0.4 $X2=1.544 $Y2=0.4
R243 d0:200 d0:240 79.832 $X=1.512 $Y=0.4 $X2=1.512 $Y2=0.4
R244 d0:201 d0:202 5.46 $X=1.544 $Y=0.4 $X2=1.583 $Y2=0.4
R245 d0:202 d0:203 6.44 $X=1.583 $Y=0.4 $X2=1.629 $Y2=0.4
R246 d0:202 d0:242 79.832 $X=1.583 $Y=0.4 $X2=1.59 $Y2=0.4
R247 d0:203 d0:204 5.46 $X=1.629 $Y=0.4 $X2=1.668 $Y2=0.4
R248 d0:204 d0:205 2.38 $X=1.668 $Y=0.4 $X2=1.685 $Y2=0.4
R249 d0:204 d0:244 79.832 $X=1.668 $Y=0.4 $X2=1.668 $Y2=0.4
R250 d0:205 d0:206 2.94 $X=1.685 $Y=0.4 $X2=1.706 $Y2=0.4
R251 d0:206 d0:207 3.08 $X=1.706 $Y=0.4 $X2=1.728 $Y2=0.4
R252 d0:206 d0:296 14.9333 $X=1.706 $Y=0.4 $X2=1.7065 $Y2=0.4
R253 d0:207 d0:208 2.52 $X=1.728 $Y=0.4 $X2=1.746 $Y2=0.4
R254 d0:208 d0:246 79.832 $X=1.746 $Y=0.4 $X2=1.746 $Y2=0.4
R255 d0:248 d0:249 0.23052 $X=0.337 $Y=0.4 $X2=0.3515 $Y2=0.4
R256 d0:249 d0:250 0.500608 $X=0.3515 $Y=0.4 $X2=0.381 $Y2=0.4
R257 d0:250 d0:251 0.548302 $X=0.381 $Y=0.4 $X2=0.4135 $Y2=0.4
R258 d0:251 d0:252 0.365653 $X=0.4135 $Y=0.4 $X2=0.4365 $Y2=0.4
R259 d0:252 d0:253 0.273141 $X=0.4365 $Y=0.4 $X2=0.4525 $Y2=0.4
R260 d0:253 d0:254 0.285986 $X=0.4525 $Y=0.4 $X2=0.4685 $Y2=0.4
R261 d0:254 d0:255 0.481835 $X=0.4685 $Y=0.4 $X2=0.498 $Y2=0.4
R262 d0:255 d0:256 0.651639 $X=0.498 $Y=0.4 $X2=0.537 $Y2=0.4
R263 d0:256 d0:257 0.309833 $X=0.537 $Y=0.4 $X2=0.5545 $Y2=0.4
R264 d0:257 d0:258 0.278214 $X=0.5545 $Y=0.4 $X2=0.572 $Y2=0.4
R265 d0:258 d0:259 0.341806 $X=0.572 $Y=0.4 $X2=0.5935 $Y2=0.4
R266 d0:260 d0:262 0.281045 $X=0.6955 $Y=0.4 $X2=0.7115 $Y2=0.4
R267 d0:262 d0:263 0.365653 $X=0.7115 $Y=0.4 $X2=0.7345 $Y2=0.4
R268 d0:263 d0:264 0.611894 $X=0.7345 $Y=0.4 $X2=0.771 $Y2=0.4
R269 d0:264 d0:265 0.452914 $X=0.771 $Y=0.4 $X2=0.7975 $Y2=0.4
R270 d0:265 d0:266 0.365653 $X=0.7975 $Y=0.4 $X2=0.8205 $Y2=0.4
R271 d0:266 d0:267 0.261284 $X=0.8205 $Y=0.4 $X2=0.8365 $Y2=0.4
R272 d0:267 d0:268 0.285986 $X=0.8365 $Y=0.4 $X2=0.8525 $Y2=0.4
R273 d0:268 d0:269 0.589079 $X=0.8525 $Y=0.4 $X2=0.888 $Y2=0.4
R274 d0:270 d0:271 0.468812 $X=0.9775 $Y=0.4 $X2=1.005 $Y2=0.4
R275 d0:271 d0:272 0.595996 $X=1.005 $Y=0.4 $X2=1.0405 $Y2=0.4
R276 d0:272 d0:273 0.365653 $X=1.0405 $Y=0.4 $X2=1.0635 $Y2=0.4
R277 d0:273 d0:274 0.279069 $X=1.0635 $Y=0.4 $X2=1.0795 $Y2=0.4
R278 d0:274 d0:275 0.285986 $X=1.0795 $Y=0.4 $X2=1.0955 $Y2=0.4
R279 d0:275 d0:276 0.428212 $X=1.0955 $Y=0.4 $X2=1.122 $Y2=0.4
R280 d0:276 d0:277 0.651639 $X=1.122 $Y=0.4 $X2=1.161 $Y2=0.4
R281 d0:277 d0:278 0.357526 $X=1.161 $Y=0.4 $X2=1.1815 $Y2=0.4
R282 d0:278 d0:279 0.325908 $X=1.1815 $Y=0.4 $X2=1.202 $Y2=0.4
R283 d0:279 d0:280 0.294112 $X=1.202 $Y=0.4 $X2=1.2205 $Y2=0.4
R284 d0:281 d0:283 0.275117 $X=1.3225 $Y=0.4 $X2=1.3385 $Y2=0.4
R285 d0:283 d0:284 0.365653 $X=1.3385 $Y=0.4 $X2=1.3615 $Y2=0.4