*|DSPF	1.5
*|DESIGN	nmos_cm_2
*|DATE	"Wed Jun 19 2024"
*|VENDOR	"Mentor Graphics Corporation"
*|PROGRAM	"Calibre xACT"
*|VERSION	"v2020.4_34.17"
*|DIVIDER	|
*|DELIMITER	:
*|BUSBIT	[]
* Corner Name: 12lp_11M_3Mx_4Cx_2Kx_2Gx_LB_nominal_detailed_25
* Nominal Temperature: 25C
* Circuit Temperature: 25C
* 

* Integrated TICER reduction is not enabled.
* SHORT DELAY THRESHOLD: 2e-14
* Fill Mode: NG
* PEX REDUCE CC ABSOLUTE : disabled
* PEX REDUCE CC RATIO : disabled
* Delta transform mode : 344834


.subckt nmos_cm_2 d0 d1 s
*
* d0 d0
* s s
* d1 d1
*
*|GROUND_NET 0
*
* Net Section
*


*|NET noxref_20 0.0851337f
*|I (X0_noxref:in X0_noxref in B 0.0 0.192 0.247)
*|S (noxref_20:2 0.18 0.247)
*|S (noxref_20:3 0.192 0.121)
*|S (noxref_20:4 0.192 0.373)
*|S (noxref_20:5 0.186 0.0935)
*|S (noxref_20:6 0.186 0.4265)
*|S (noxref_20:7 0.186 0.247)
*|S (noxref_20:8 0.192 0.127)
*|S (noxref_20:9 0.192 0.367)
*|S (noxref_20:10 0.186 0.247)
*|S (noxref_20:11 0.186 0.115)
*|S (noxref_20:12 0.186 0.379)
Cg_1 X0_noxref:in 0 8.36298e-20
Cg_2 noxref_20:2 0 0.00069993f
Cg_3 noxref_20:3 0 4.28933e-20
Cg_4 noxref_20:4 0 4.2331e-20
Cg_5 noxref_20:5 0 0.000359997f
Cg_6 noxref_20:6 0 0.00055226f
R1 X0_noxref:in noxref_20:7 2.825 $X=0.192 $Y=0.247 $X2=0.186 $Y2=0.247
R2 X0_noxref:in noxref_20:8 1130 $X=0.192 $Y=0.247 $X2=0.192 $Y2=0.127
R3 X0_noxref:in noxref_20:9 1130 $X=0.192 $Y=0.247 $X2=0.192 $Y2=0.367
R4 noxref_20:2 noxref_20:7 2.56818 $X=0.18 $Y=0.247 $X2=0.186 $Y2=0.247
R5 noxref_20:2 noxref_20:10 2.56818 $X=0.18 $Y=0.247 $X2=0.186 $Y2=0.247
R6 noxref_20:2 noxref_20:11 1243 $X=0.18 $Y=0.247 $X2=0.186 $Y2=0.115
R7 noxref_20:2 noxref_20:12 1243 $X=0.18 $Y=0.247 $X2=0.186 $Y2=0.379
R8 noxref_20:3 noxref_20:8 56.5 $X=0.192 $Y=0.121 $X2=0.192 $Y2=0.127
R9 noxref_20:3 noxref_20:10 56.5 $X=0.192 $Y=0.121 $X2=0.186 $Y2=0.247
R10 noxref_20:3 noxref_20:11 56.5 $X=0.192 $Y=0.121 $X2=0.186 $Y2=0.115
R11 noxref_20:4 noxref_20:9 56.5 $X=0.192 $Y=0.373 $X2=0.192 $Y2=0.367
R12 noxref_20:4 noxref_20:10 56.5 $X=0.192 $Y=0.373 $X2=0.186 $Y2=0.247
R13 noxref_20:4 noxref_20:12 56.5 $X=0.192 $Y=0.373 $X2=0.186 $Y2=0.379
R14 noxref_20:5 noxref_20:11 60.9167 $X=0.186 $Y=0.0935 $X2=0.186 $Y2=0.115
R15 noxref_20:6 noxref_20:12 134.583 $X=0.186 $Y=0.4265 $X2=0.186 $Y2=0.379

*|NET noxref_24 0.0850335f
*|I (X1_noxref:in X1_noxref in B 0.0 1.506 0.247)
*|S (noxref_24:2 1.506 0.121)
*|S (noxref_24:3 1.506 0.373)
*|S (noxref_24:4 1.518 0.247)
*|S (noxref_24:5 1.512 0.0935)
*|S (noxref_24:6 1.512 0.4265)
*|S (noxref_24:7 1.506 0.127)
*|S (noxref_24:8 1.506 0.367)
*|S (noxref_24:9 1.512 0.247)
*|S (noxref_24:10 1.512 0.247)
*|S (noxref_24:11 1.512 0.115)
*|S (noxref_24:12 1.512 0.379)
Cg_7 X1_noxref:in 0 7.8504e-20
Cg_8 noxref_24:2 0 7.2959e-20
Cg_9 noxref_24:3 0 4.1685e-20
Cg_10 noxref_24:4 0 0.000553348f
Cg_11 noxref_24:5 0 0.000375625f
Cg_12 noxref_24:6 0 0.000596066f
Cc_13 noxref_24:4 d0:33 0.00129632f
Cc_14 noxref_24:6 d0:33 0.000686616f
Cc_15 noxref_24:5 d0:62 0.000154435f
Cc_16 noxref_24:6 d0:63 0.000262774f
Cc_17 noxref_24:2 d0:64 0.000104306f
Cc_18 noxref_24:5 d0:64 0.003799f
Cc_19 noxref_24:3 d0:65 0.000120803f
Cc_20 noxref_24:4 d0:65 0.000162569f
Cc_21 noxref_24:6 d0:65 0.00599666f
Cc_22 noxref_24:6 d0:132 0.00349582f
R16 X1_noxref:in noxref_24:7 1130 $X=1.506 $Y=0.247 $X2=1.506 $Y2=0.127
R17 X1_noxref:in noxref_24:8 1130 $X=1.506 $Y=0.247 $X2=1.506 $Y2=0.367
R18 X1_noxref:in noxref_24:9 2.825 $X=1.506 $Y=0.247 $X2=1.512 $Y2=0.247
R19 noxref_24:2 noxref_24:7 56.5 $X=1.506 $Y=0.121 $X2=1.506 $Y2=0.127
R20 noxref_24:2 noxref_24:10 56.5 $X=1.506 $Y=0.121 $X2=1.512 $Y2=0.247
R21 noxref_24:2 noxref_24:11 56.5 $X=1.506 $Y=0.121 $X2=1.512 $Y2=0.115
R22 noxref_24:3 noxref_24:8 56.5 $X=1.506 $Y=0.373 $X2=1.506 $Y2=0.367
R23 noxref_24:3 noxref_24:10 56.5 $X=1.506 $Y=0.373 $X2=1.512 $Y2=0.247
R24 noxref_24:3 noxref_24:12 56.5 $X=1.506 $Y=0.373 $X2=1.512 $Y2=0.379
R25 noxref_24:4 noxref_24:9 2.56818 $X=1.518 $Y=0.247 $X2=1.512 $Y2=0.247
R26 noxref_24:4 noxref_24:10 2.56818 $X=1.518 $Y=0.247 $X2=1.512 $Y2=0.247
R27 noxref_24:4 noxref_24:11 1243 $X=1.518 $Y=0.247 $X2=1.512 $Y2=0.115
R28 noxref_24:4 noxref_24:12 1243 $X=1.518 $Y=0.247 $X2=1.512 $Y2=0.379
R29 noxref_24:5 noxref_24:11 60.9167 $X=1.512 $Y=0.0935 $X2=1.512 $Y2=0.115
R30 noxref_24:6 noxref_24:12 134.583 $X=1.512 $Y=0.4265 $X2=1.512 $Y2=0.379

*|NET d0 3.01537f
*|P (d0 B 0.0 0.303 0.143)
*|I (MN0:g MN0 g B 0.0 0.264 0.247)
*|I (MN0@8:g MN0@8 g B 0.0 0.342 0.247)
*|I (MN1:g MN1 g B 0.0 0.42 0.247)
*|I (MN1@8:g MN1@8 g B 0.0 0.498 0.247)
*|I (MN0@7:g MN0@7 g B 0.0 0.576 0.247)
*|I (MN0@6:g MN0@6 g B 0.0 0.654 0.247)
*|I (MN1@7:g MN1@7 g B 0.0 0.732 0.247)
*|I (MN1@6:g MN1@6 g B 0.0 0.81 0.247)
*|I (MN0@5:g MN0@5 g B 0.0 0.888 0.247)
*|I (MN0@4:g MN0@4 g B 0.0 0.966 0.247)
*|I (MN1@5:g MN1@5 g B 0.0 1.044 0.247)
*|I (MN1@4:g MN1@4 g B 0.0 1.122 0.247)
*|I (MN0@3:g MN0@3 g B 0.0 1.2 0.247)
*|I (MN0@2:g MN0@2 g B 0.0 1.278 0.247)
*|I (MN1@3:g MN1@3 g B 0.0 1.356 0.247)
*|I (MN1@2:g MN1@2 g B 0.0 1.434 0.247)
*|I (MN0:d MN0 d B 0.0 0.2758 0.247)
*|I (MN0@7:d MN0@7 d B 0.0 0.5879 0.247)
*|I (MN0@5:d MN0@5 d B 0.0 0.8998 0.247)
*|I (MN0@3:d MN0@3 d B 0.0 1.2118 0.247)
*|I (MN0@8:d MN0@8 d B 0.0 0.3302 0.247)
*|I (MN0@4:d MN0@4 d B 0.0 0.9541 0.247)
*|I (MN0@6:d MN0@6 d B 0.0 0.6422 0.247)
*|I (MN0@2:d MN0@2 d B 0.0 1.2661 0.247)
*|S (d0:21 0.2965 0.448)
*|S (d0:22 0.615 0.448)
*|S (d0:23 0.9235 0.448)
*|S (d0:24 1.239 0.448)
*|S (d0:25 0.264 0.448)
*|S (d0:27 0.381 0.448)
*|S (d0:28 0.615 0.3995)
*|S (d0:29 0.6415 0.448)
*|S (d0:30 0.927 0.3995)
*|S (d0:31 1.0255 0.448)
*|S (d0:32 1.239 0.3995)
*|S (d0:33 1.2685 0.448)
*|S (d0:34 0.264 0.0995)
*|S (d0:35 0.264 0.4)
*|S (d0:36 0.342 0.0995)
*|S (d0:37 0.342 0.4)
*|S (d0:38 0.42 0.0995)
*|S (d0:39 0.42 0.4)
*|S (d0:40 0.498 0.0995)
*|S (d0:41 0.498 0.4)
*|S (d0:42 0.576 0.0995)
*|S (d0:43 0.576 0.4)
*|S (d0:44 0.654 0.0995)
*|S (d0:45 0.654 0.4)
*|S (d0:46 0.732 0.0995)
*|S (d0:47 0.732 0.4)
*|S (d0:48 0.81 0.0995)
*|S (d0:49 0.81 0.4)
*|S (d0:50 0.888 0.0995)
*|S (d0:51 0.888 0.4)
*|S (d0:52 0.966 0.0995)
*|S (d0:53 0.966 0.4)
*|S (d0:54 1.044 0.0995)
*|S (d0:55 1.044 0.4)
*|S (d0:56 1.122 0.0995)
*|S (d0:57 1.122 0.4)
*|S (d0:58 1.2 0.0995)
*|S (d0:59 1.2 0.4)
*|S (d0:60 1.278 0.0995)
*|S (d0:61 1.278 0.4)
*|S (d0:62 1.356 0.0995)
*|S (d0:63 1.356 0.4)
*|S (d0:64 1.434 0.0995)
*|S (d0:65 1.434 0.4)
*|S (d0:66 0.303 0.247)
*|S (d0:67 0.615 0.247)
*|S (d0:68 0.927 0.247)
*|S (d0:69 1.239 0.247)
*|S (d0:128 0.303 0.247)
*|S (d0:129 0.615 0.247)
*|S (d0:130 0.927 0.247)
*|S (d0:131 1.239 0.247)
*|S (d0:132 0.2425 0.448)
*|S (d0:133 0.888 0.127)
*|S (d0:134 0.888 0.367)
*|S (d0:135 0.888 0.448)
*|S (d0:137 0.279 0.448)
*|S (d0:138 0.318 0.448)
*|S (d0:139 0.342 0.448)
*|S (d0:140 0.377 0.448)
*|S (d0:141 0.416 0.448)
*|S (d0:142 0.459 0.448)
*|S (d0:143 0.498 0.448)
*|S (d0:144 0.518 0.448)
*|S (d0:145 0.542 0.448)
*|S (d0:146 0.561 0.448)
*|S (d0:147 0.576 0.448)
*|S (d0:148 0.615 0.448)
*|S (d0:149 0.663 0.448)
*|S (d0:150 0.702 0.448)
*|S (d0:151 0.732 0.448)
*|S (d0:152 0.761 0.448)
*|S (d0:153 0.8 0.448)
*|S (d0:154 0.849 0.448)
*|S (d0:155 0.888 0.448)
*|S (d0:156 0.902 0.448)
*|S (d0:157 0.92 0.448)
*|S (d0:158 0.945 0.448)
*|S (d0:159 0.966 0.448)
*|S (d0:160 1.004 0.448)
*|S (d0:161 1.046 0.448)
*|S (d0:162 1.086 0.448)
*|S (d0:163 1.122 0.448)
*|S (d0:164 1.145 0.448)
*|S (d0:165 1.184 0.448)
*|S (d0:166 1.239 0.448)
*|S (d0:167 1.29 0.448)
*|S (d0:168 1.329 0.448)
*|S (d0:169 1.356 0.448)
*|S (d0:170 1.388 0.448)
*|S (d0:171 1.427 0.448)
*|S (d0:173 0.264 0.448)
*|S (d0:175 0.342 0.448)
*|S (d0:177 0.42 0.448)
*|S (d0:179 0.498 0.448)
*|S (d0:181 0.576 0.448)
*|S (d0:183 0.654 0.448)
*|S (d0:185 0.732 0.448)
*|S (d0:187 0.81 0.448)
*|S (d0:189 0.966 0.448)
*|S (d0:191 1.044 0.448)
*|S (d0:193 1.122 0.448)
*|S (d0:195 1.2 0.448)
*|S (d0:197 1.278 0.448)
*|S (d0:199 1.356 0.448)
*|S (d0:201 1.434 0.448)
*|S (d0:203 0.3125 0.448)
*|S (d0:204 0.3435 0.448)
*|S (d0:205 0.3205 0.448)
*|S (d0:206 0.3985 0.448)
*|S (d0:207 0.416 0.448)
*|S (d0:208 0.4375 0.448)
*|S (d0:209 0.459 0.448)
*|S (d0:210 0.498 0.448)
*|S (d0:211 0.5235 0.448)
*|S (d0:212 0.5395 0.448)
*|S (d0:213 0.5555 0.448)
*|S (d0:214 0.5785 0.448)
*|S (d0:215 0.6645 0.448)
*|S (d0:216 0.6805 0.448)
*|S (d0:217 0.6965 0.448)
*|S (d0:218 0.732 0.448)
*|S (d0:219 0.7665 0.448)
*|S (d0:220 0.7825 0.448)
*|S (d0:221 0.7985 0.448)
*|S (d0:222 0.8215 0.448)
*|S (d0:223 0.849 0.448)
*|S (d0:224 0.888 0.448)
*|S (d0:225 0.9395 0.448)
*|S (d0:226 1.046 0.448)
*|S (d0:227 1.0645 0.448)
*|S (d0:228 1.005 0.448)
*|S (d0:229 0.966 0.448)
*|S (d0:230 1.083 0.448)
*|S (d0:231 1.122 0.448)
*|S (d0:232 1.1505 0.448)
*|S (d0:233 1.1665 0.448)
*|S (d0:234 1.1825 0.448)
*|S (d0:235 1.2055 0.448)
*|S (d0:236 1.2915 0.448)
*|S (d0:237 1.3075 0.448)
*|S (d0:238 1.3235 0.448)
*|S (d0:239 1.3545 0.448)
*|S (d0:240 1.3775 0.448)
*|S (d0:241 1.3935 0.448)
*|S (d0:242 1.4095 0.448)
*|S (d0:243 1.4255 0.448)
*|S (d0:247 0.264 0.367)
*|S (d0:248 0.264 0.127)
*|S (d0:249 0.342 0.367)
*|S (d0:250 0.342 0.127)
*|S (d0:251 0.42 0.367)
*|S (d0:252 0.42 0.127)
*|S (d0:253 0.498 0.367)
*|S (d0:254 0.498 0.127)
*|S (d0:255 0.576 0.367)
*|S (d0:256 0.576 0.127)
*|S (d0:257 0.654 0.367)
*|S (d0:258 0.654 0.127)
*|S (d0:259 0.732 0.367)
*|S (d0:260 0.732 0.127)
*|S (d0:261 0.81 0.367)
*|S (d0:262 0.81 0.127)
*|S (d0:263 0.966 0.367)
*|S (d0:264 0.966 0.127)
*|S (d0:265 1.044 0.367)
*|S (d0:266 1.044 0.127)
*|S (d0:267 1.122 0.367)
*|S (d0:268 1.122 0.127)
*|S (d0:269 1.2 0.367)
*|S (d0:270 1.2 0.127)
*|S (d0:271 1.278 0.367)
*|S (d0:272 1.278 0.127)
*|S (d0:273 1.356 0.367)
*|S (d0:274 1.356 0.127)
*|S (d0:275 1.434 0.367)
*|S (d0:276 1.434 0.127)
*|S (d0:280 0.303 0.3995)
*|S (d0:281 0.303 0.1557)
*|S (d0:282 0.303 0.184)
*|S (d0:283 0.303 0.247)
*|S (d0:284 0.303 0.31)
*|S (d0:285 0.303 0.3465)
*|S (d0:287 0.927 0.184)
*|S (d0:288 0.927 0.247)
*|S (d0:289 0.927 0.31)
*|S (d0:290 0.927 0.3465)
*|S (d0:292 0.615 0.184)
*|S (d0:293 0.615 0.247)
*|S (d0:294 0.615 0.31)
*|S (d0:295 0.615 0.3465)
*|S (d0:297 1.239 0.184)
*|S (d0:298 1.239 0.247)
*|S (d0:299 1.239 0.31)
*|S (d0:300 1.239 0.3465)
Cg_23 MN0:g 0 6.22778e-25
Cg_24 MN0@8:g 0 0.00141902f
Cg_25 MN1:g 0 1.27083e-24
Cg_26 MN1@8:g 0 1.19266e-24
Cg_27 MN0@7:g 0 6.41989e-25
Cg_28 MN0@6:g 0 0.00141907f
Cg_29 MN1@7:g 0 1.20159e-24
Cg_30 MN1@6:g 0 1.26184e-24
Cg_31 MN0@5:g 0 6.41989e-25
Cg_32 MN0@4:g 0 0.00141907f
Cg_33 MN1@5:g 0 1.20159e-24
Cg_34 MN1@4:g 0 1.29765e-24
Cg_35 MN0@3:g 0 6.06121e-25
Cg_36 MN0@2:g 0 0.00141906f
Cg_37 MN1@3:g 0 1.20149e-24
Cg_38 MN1@2:g 0 1.33829e-24
Cg_39 MN0:d 0 0.000317822f
Cg_40 MN0@7:d 0 0.000107151f
Cg_41 MN0@5:d 0 0.000136097f
Cg_42 MN0@3:d 0 8.59948e-20
Cg_43 d0:21 0 0.00206571f
Cg_44 d0:22 0 0.00163223f
Cg_45 d0:23 0 0.00158778f
Cg_46 d0:24 0 0.00155815f
Cg_47 d0:25 0 0.00764086f
Cg_48 d0 0 0.0187148f
Cg_49 d0:27 0 0.0167621f
Cg_50 d0:28 0 0.0210584f
Cg_51 d0:29 0 0.0253709f
Cg_52 d0:30 0 0.0196419f
Cg_53 d0:31 0 0.0169631f
Cg_54 d0:32 0 0.0214993f
Cg_55 d0:33 0 0.0139596f
Cg_56 d0:34 0 0.0011317f
Cg_57 d0:35 0 0.00114748f
Cg_58 d0:36 0 0.0012062f
Cg_59 d0:37 0 0.00138803f
Cg_60 d0:38 0 0.00164493f
Cg_61 d0:39 0 0.00207126f
Cg_62 d0:40 0 0.00164493f
Cg_63 d0:41 0 0.00250177f
Cg_64 d0:42 0 0.0011702f
Cg_65 d0:43 0 0.00154524f
Cg_66 d0:44 0 0.00117162f
Cg_67 d0:45 0 0.00150984f
Cg_68 d0:46 0 0.00164493f
Cg_69 d0:47 0 0.0024236f
Cg_70 d0:48 0 0.00164493f
Cg_71 d0:49 0 0.00259863f
Cg_72 d0:50 0 0.00117012f
Cg_73 d0:51 0 0.00148314f
Cg_74 d0:52 0 0.00117155f
Cg_75 d0:53 0 0.00156684f
Cg_76 d0:54 0 0.00164493f
Cg_77 d0:55 0 0.0024196f
Cg_78 d0:56 0 0.00164493f
Cg_79 d0:57 0 0.00241807f
Cg_80 d0:58 0 0.00119896f
Cg_81 d0:59 0 0.00143018f
Cg_82 d0:60 0 0.00121059f
Cg_83 d0:61 0 0.00124172f
Cg_84 d0:62 0 0.00186176f
Cg_85 d0:63 0 0.00194569f
Cg_86 d0:64 0 0.00211989f
Cg_87 d0:65 0 0.00210748f
Cg_88 d0:66 0 0.000447046f
Cg_89 d0:67 0 0.000427332f
Cg_90 d0:68 0 0.000427337f
Cg_91 d0:69 0 0.000427332f
Cg_92 d0:128 0 0.00102916f
Cg_93 d0:129 0 0.00131805f
Cg_94 d0:130 0 0.00127101f
Cg_95 d0:131 0 0.00123521f
Cg_96 d0:132 0 0.0150052f
Cc_97 MN0:d noxref_20:2 0.00110693f
Cc_98 d0:25 noxref_20:2 0.000281983f
Cc_99 d0:35 noxref_20:2 0.000167512f
Cc_100 d0:132 noxref_20:2 0.000686196f
Cc_101 d0:34 noxref_20:3 0.00011689f
Cc_102 d0:35 noxref_20:4 0.000128198f
Cc_103 d0:34 noxref_20:5 0.00389511f
Cc_104 d0:36 noxref_20:5 0.000182128f
Cc_105 d0:25 noxref_20:6 0.000504833f
Cc_106 d0:35 noxref_20:6 0.0061789f
Cc_107 d0:37 noxref_20:6 0.000165975f
Cc_108 d0:132 noxref_20:6 0.00361322f
R31 MN0:g d0:247 173.833 $X=0.264 $Y=0.247 $X2=0.264 $Y2=0.367
R32 MN0:g d0:248 173.833 $X=0.264 $Y=0.247 $X2=0.264 $Y2=0.127
R33 MN0@8:g d0:249 173.833 $X=0.342 $Y=0.247 $X2=0.342 $Y2=0.367
R34 MN0@8:g d0:250 173.833 $X=0.342 $Y=0.247 $X2=0.342 $Y2=0.127
R35 MN1:g d0:251 173.833 $X=0.42 $Y=0.247 $X2=0.42 $Y2=0.367
R36 MN1:g d0:252 173.833 $X=0.42 $Y=0.247 $X2=0.42 $Y2=0.127
R37 MN1@8:g d0:253 173.833 $X=0.498 $Y=0.247 $X2=0.498 $Y2=0.367
R38 MN1@8:g d0:254 173.833 $X=0.498 $Y=0.247 $X2=0.498 $Y2=0.127
R39 MN0@7:g d0:255 173.833 $X=0.576 $Y=0.247 $X2=0.576 $Y2=0.367
R40 MN0@7:g d0:256 173.833 $X=0.576 $Y=0.247 $X2=0.576 $Y2=0.127
R41 MN0@6:g d0:257 173.833 $X=0.654 $Y=0.247 $X2=0.654 $Y2=0.367
R42 MN0@6:g d0:258 173.833 $X=0.654 $Y=0.247 $X2=0.654 $Y2=0.127
R43 MN1@7:g d0:259 173.833 $X=0.732 $Y=0.247 $X2=0.732 $Y2=0.367
R44 MN1@7:g d0:260 173.833 $X=0.732 $Y=0.247 $X2=0.732 $Y2=0.127
R45 MN1@6:g d0:261 173.833 $X=0.81 $Y=0.247 $X2=0.81 $Y2=0.367
R46 MN1@6:g d0:262 173.833 $X=0.81 $Y=0.247 $X2=0.81 $Y2=0.127
R47 MN0@5:g d0:133 173.833 $X=0.888 $Y=0.247 $X2=0.888 $Y2=0.127
R48 MN0@5:g d0:134 173.833 $X=0.888 $Y=0.247 $X2=0.888 $Y2=0.367
R49 MN0@4:g d0:263 173.833 $X=0.966 $Y=0.247 $X2=0.966 $Y2=0.367
R50 MN0@4:g d0:264 173.833 $X=0.966 $Y=0.247 $X2=0.966 $Y2=0.127
R51 MN1@5:g d0:265 173.833 $X=1.044 $Y=0.247 $X2=1.044 $Y2=0.367
R52 MN1@5:g d0:266 173.833 $X=1.044 $Y=0.247 $X2=1.044 $Y2=0.127
R53 MN1@4:g d0:267 173.833 $X=1.122 $Y=0.247 $X2=1.122 $Y2=0.367
R54 MN1@4:g d0:268 173.833 $X=1.122 $Y=0.247 $X2=1.122 $Y2=0.127
R55 MN0@3:g d0:269 173.833 $X=1.2 $Y=0.247 $X2=1.2 $Y2=0.367
R56 MN0@3:g d0:270 173.833 $X=1.2 $Y=0.247 $X2=1.2 $Y2=0.127
R57 MN0@2:g d0:271 173.833 $X=1.278 $Y=0.247 $X2=1.278 $Y2=0.367
R58 MN0@2:g d0:272 173.833 $X=1.278 $Y=0.247 $X2=1.278 $Y2=0.127
R59 MN1@3:g d0:273 173.833 $X=1.356 $Y=0.247 $X2=1.356 $Y2=0.367
R60 MN1@3:g d0:274 173.833 $X=1.356 $Y=0.247 $X2=1.356 $Y2=0.127
R61 MN1@2:g d0:275 173.833 $X=1.434 $Y=0.247 $X2=1.434 $Y2=0.367
R62 MN1@2:g d0:276 173.833 $X=1.434 $Y=0.247 $X2=1.434 $Y2=0.127
R63 d0:21 d0:203 0.359893 $X=0.2965 $Y=0.448 $X2=0.3125 $Y2=0.448
R64 d0:21 d0:137 14.9333 $X=0.2965 $Y=0.448 $X2=0.279 $Y2=0.448
R65 d0:21 d0:25 0.579339 $X=0.2965 $Y=0.448 $X2=0.264 $Y2=0.448
R66 d0:21 d0:280 0.73037 $X=0.2965 $Y=0.448 $X2=0.303 $Y2=0.3995
R67 d0:22 d0:214 0.685801 $X=0.615 $Y=0.448 $X2=0.5785 $Y2=0.448
R68 d0:22 d0:29 0.526821 $X=0.615 $Y=0.448 $X2=0.6415 $Y2=0.448
R69 d0:22 d0:28 0.876576 $X=0.615 $Y=0.448 $X2=0.615 $Y2=0.3995
R70 d0:23 d0:225 0.359893 $X=0.9235 $Y=0.448 $X2=0.9395 $Y2=0.448
R71 d0:23 d0:224 0.646819 $X=0.9235 $Y=0.448 $X2=0.888 $Y2=0.448
R72 d0:23 d0:157 14.9333 $X=0.9235 $Y=0.448 $X2=0.92 $Y2=0.448
R73 d0:23 d0:30 0.79785 $X=0.9235 $Y=0.448 $X2=0.927 $Y2=0.3995
R74 d0:24 d0:235 0.638107 $X=1.239 $Y=0.448 $X2=1.2055 $Y2=0.448
R75 d0:24 d0:33 0.574515 $X=1.239 $Y=0.448 $X2=1.2685 $Y2=0.448
R76 d0:24 d0:32 0.876576 $X=1.239 $Y=0.448 $X2=1.239 $Y2=0.3995
R77 d0 d0:281 0.257842 $X=0.303 $Y=0.143 $X2=0.303 $Y2=0.1557
R78 d0:27 d0:204 0.627792 $X=0.381 $Y=0.448 $X2=0.3435 $Y2=0.448
R79 d0:27 d0:206 0.309833 $X=0.381 $Y=0.448 $X2=0.3985 $Y2=0.448
R80 d0:28 d0:295 0.931253 $X=0.615 $Y=0.3995 $X2=0.615 $Y2=0.3465
R81 d0:29 d0:215 0.365653 $X=0.6415 $Y=0.448 $X2=0.6645 $Y2=0.448
R82 d0:30 d0:290 0.931253 $X=0.927 $Y=0.3995 $X2=0.927 $Y2=0.3465
R83 d0:31 d0:226 0.325908 $X=1.0255 $Y=0.448 $X2=1.046 $Y2=0.448
R84 d0:31 d0:228 0.357526 $X=1.0255 $Y=0.448 $X2=1.005 $Y2=0.448
R85 d0:32 d0:300 0.931253 $X=1.239 $Y=0.3995 $X2=1.239 $Y2=0.3465
R86 d0:33 d0:236 0.365653 $X=1.2685 $Y=0.448 $X2=1.2915 $Y2=0.448
R87 d0:34 d0:248 77.9167 $X=0.264 $Y=0.0995 $X2=0.264 $Y2=0.127
R88 d0:35 d0:173 136 $X=0.264 $Y=0.4 $X2=0.264 $Y2=0.448
R89 d0:35 d0:247 93.5 $X=0.264 $Y=0.4 $X2=0.264 $Y2=0.367
R90 d0:36 d0:250 77.9167 $X=0.342 $Y=0.0995 $X2=0.342 $Y2=0.127
R91 d0:37 d0:175 136 $X=0.342 $Y=0.4 $X2=0.342 $Y2=0.448
R92 d0:37 d0:249 93.5 $X=0.342 $Y=0.4 $X2=0.342 $Y2=0.367
R93 d0:38 d0:252 77.9167 $X=0.42 $Y=0.0995 $X2=0.42 $Y2=0.127
R94 d0:39 d0:177 136 $X=0.42 $Y=0.4 $X2=0.42 $Y2=0.448
R95 d0:39 d0:251 93.5 $X=0.42 $Y=0.4 $X2=0.42 $Y2=0.367
R96 d0:40 d0:254 77.9167 $X=0.498 $Y=0.0995 $X2=0.498 $Y2=0.127
R97 d0:41 d0:179 136 $X=0.498 $Y=0.4 $X2=0.498 $Y2=0.448
R98 d0:41 d0:253 93.5 $X=0.498 $Y=0.4 $X2=0.498 $Y2=0.367
R99 d0:42 d0:256 77.9167 $X=0.576 $Y=0.0995 $X2=0.576 $Y2=0.127
R100 d0:43 d0:181 136 $X=0.576 $Y=0.4 $X2=0.576 $Y2=0.448
R101 d0:43 d0:255 93.5 $X=0.576 $Y=0.4 $X2=0.576 $Y2=0.367
R102 d0:44 d0:258 77.9167 $X=0.654 $Y=0.0995 $X2=0.654 $Y2=0.127
R103 d0:45 d0:183 136 $X=0.654 $Y=0.4 $X2=0.654 $Y2=0.448
R104 d0:45 d0:257 93.5 $X=0.654 $Y=0.4 $X2=0.654 $Y2=0.367
R105 d0:46 d0:260 77.9167 $X=0.732 $Y=0.0995 $X2=0.732 $Y2=0.127
R106 d0:47 d0:185 136 $X=0.732 $Y=0.4 $X2=0.732 $Y2=0.448
R107 d0:47 d0:259 93.5 $X=0.732 $Y=0.4 $X2=0.732 $Y2=0.367
R108 d0:48 d0:262 77.9167 $X=0.81 $Y=0.0995 $X2=0.81 $Y2=0.127
R109 d0:49 d0:187 136 $X=0.81 $Y=0.4 $X2=0.81 $Y2=0.448
R110 d0:49 d0:261 93.5 $X=0.81 $Y=0.4 $X2=0.81 $Y2=0.367
R111 d0:50 d0:133 77.9167 $X=0.888 $Y=0.0995 $X2=0.888 $Y2=0.127
R112 d0:51 d0:135 136 $X=0.888 $Y=0.4 $X2=0.888 $Y2=0.448
R113 d0:51 d0:134 93.5 $X=0.888 $Y=0.4 $X2=0.888 $Y2=0.367
R114 d0:52 d0:264 77.9167 $X=0.966 $Y=0.0995 $X2=0.966 $Y2=0.127
R115 d0:53 d0:189 136 $X=0.966 $Y=0.4 $X2=0.966 $Y2=0.448
R116 d0:53 d0:263 93.5 $X=0.966 $Y=0.4 $X2=0.966 $Y2=0.367
R117 d0:54 d0:266 77.9167 $X=1.044 $Y=0.0995 $X2=1.044 $Y2=0.127
R118 d0:55 d0:191 136 $X=1.044 $Y=0.4 $X2=1.044 $Y2=0.448
R119 d0:55 d0:265 93.5 $X=1.044 $Y=0.4 $X2=1.044 $Y2=0.367
R120 d0:56 d0:268 77.9167 $X=1.122 $Y=0.0995 $X2=1.122 $Y2=0.127
R121 d0:57 d0:193 136 $X=1.122 $Y=0.4 $X2=1.122 $Y2=0.448
R122 d0:57 d0:267 93.5 $X=1.122 $Y=0.4 $X2=1.122 $Y2=0.367
R123 d0:58 d0:270 77.9167 $X=1.2 $Y=0.0995 $X2=1.2 $Y2=0.127
R124 d0:59 d0:195 136 $X=1.2 $Y=0.4 $X2=1.2 $Y2=0.448
R125 d0:59 d0:269 93.5 $X=1.2 $Y=0.4 $X2=1.2 $Y2=0.367
R126 d0:60 d0:272 77.9167 $X=1.278 $Y=0.0995 $X2=1.278 $Y2=0.127
R127 d0:61 d0:197 136 $X=1.278 $Y=0.4 $X2=1.278 $Y2=0.448
R128 d0:61 d0:271 93.5 $X=1.278 $Y=0.4 $X2=1.278 $Y2=0.367
R129 d0:62 d0:274 77.9167 $X=1.356 $Y=0.0995 $X2=1.356 $Y2=0.127
R130 d0:63 d0:199 136 $X=1.356 $Y=0.4 $X2=1.356 $Y2=0.448
R131 d0:63 d0:273 93.5 $X=1.356 $Y=0.4 $X2=1.356 $Y2=0.367
R132 d0:64 d0:276 77.9167 $X=1.434 $Y=0.0995 $X2=1.434 $Y2=0.127
R133 d0:65 d0:201 136 $X=1.434 $Y=0.4 $X2=1.434 $Y2=0.448
R134 d0:65 d0:275 93.5 $X=1.434 $Y=0.4 $X2=1.434 $Y2=0.367
R135 d0:66 d0:128 4.50838 $X=0.303 $Y=0.247 $X2=0.303 $Y2=0.247
R136 d0:66 MN0@8:d 58.802 $X=0.303 $Y=0.247 $X2=0.3301 $Y2=0.247
R137 d0:67 d0:129 4.50838 $X=0.615 $Y=0.247 $X2=0.615 $Y2=0.247
R138 d0:67 MN0@6:d 58.802 $X=0.615 $Y=0.247 $X2=0.6421 $Y2=0.247
R139 d0:68 d0:130 4.50838 $X=0.927 $Y=0.247 $X2=0.927 $Y2=0.247
R140 d0:68 MN0@4:d 58.802 $X=0.927 $Y=0.247 $X2=0.9541 $Y2=0.247
R141 d0:69 d0:131 4.50838 $X=1.239 $Y=0.247 $X2=1.239 $Y2=0.247
R142 d0:69 MN0@2:d 58.802 $X=1.239 $Y=0.247 $X2=1.2661 $Y2=0.247
R143 d0:128 d0:282 14 $X=0.303 $Y=0.247 $X2=0.303 $Y2=0.184
R144 d0:128 d0:284 14 $X=0.303 $Y=0.247 $X2=0.303 $Y2=0.31
R145 d0:129 d0:292 14 $X=0.615 $Y=0.247 $X2=0.615 $Y2=0.184
R146 d0:129 d0:294 14 $X=0.615 $Y=0.247 $X2=0.615 $Y2=0.31
R147 d0:130 d0:287 14 $X=0.927 $Y=0.247 $X2=0.927 $Y2=0.184
R148 d0:130 d0:289 14 $X=0.927 $Y=0.247 $X2=0.927 $Y2=0.31
R149 d0:131 d0:297 14 $X=1.239 $Y=0.247 $X2=1.239 $Y2=0.184
R150 d0:131 d0:299 14 $X=1.239 $Y=0.247 $X2=1.239 $Y2=0.31
R151 d0:132 d0:137 5.11 $X=0.2425 $Y=0.448 $X2=0.279 $Y2=0.448
R152 d0:135 d0:155 79.832 $X=0.888 $Y=0.448 $X2=0.888 $Y2=0.448
R153 d0:137 d0:138 5.46 $X=0.279 $Y=0.448 $X2=0.318 $Y2=0.448
R154 d0:137 d0:173 79.832 $X=0.279 $Y=0.448 $X2=0.264 $Y2=0.448
R155 d0:138 d0:139 3.36 $X=0.318 $Y=0.448 $X2=0.342 $Y2=0.448
R156 d0:139 d0:140 4.9 $X=0.342 $Y=0.448 $X2=0.377 $Y2=0.448
R157 d0:139 d0:175 79.832 $X=0.342 $Y=0.448 $X2=0.342 $Y2=0.448
R158 d0:140 d0:141 5.46 $X=0.377 $Y=0.448 $X2=0.416 $Y2=0.448
R159 d0:141 d0:142 6.02 $X=0.416 $Y=0.448 $X2=0.459 $Y2=0.448
R160 d0:141 d0:177 79.832 $X=0.416 $Y=0.448 $X2=0.42 $Y2=0.448
R161 d0:141 d0:207 14.9333 $X=0.416 $Y=0.448 $X2=0.416 $Y2=0.448
R162 d0:142 d0:143 5.46 $X=0.459 $Y=0.448 $X2=0.498 $Y2=0.448
R163 d0:143 d0:144 2.8 $X=0.498 $Y=0.448 $X2=0.518 $Y2=0.448
R164 d0:143 d0:179 79.832 $X=0.498 $Y=0.448 $X2=0.498 $Y2=0.448
R165 d0:144 d0:145 3.36 $X=0.518 $Y=0.448 $X2=0.542 $Y2=0.448
R166 d0:145 d0:146 2.66 $X=0.542 $Y=0.448 $X2=0.561 $Y2=0.448
R167 d0:145 d0:212 14.9333 $X=0.542 $Y=0.448 $X2=0.5395 $Y2=0.448
R168 d0:146 d0:147 2.1 $X=0.561 $Y=0.448 $X2=0.576 $Y2=0.448
R169 d0:147 d0:148 5.46 $X=0.576 $Y=0.448 $X2=0.615 $Y2=0.448
R170 d0:147 d0:181 79.832 $X=0.576 $Y=0.448 $X2=0.576 $Y2=0.448
R171 d0:148 d0:149 6.72 $X=0.615 $Y=0.448 $X2=0.663 $Y2=0.448
R172 d0:149 d0:150 5.46 $X=0.663 $Y=0.448 $X2=0.702 $Y2=0.448
R173 d0:149 d0:183 79.832 $X=0.663 $Y=0.448 $X2=0.654 $Y2=0.448
R174 d0:149 d0:215 14.9333 $X=0.663 $Y=0.448 $X2=0.6645 $Y2=0.448
R175 d0:150 d0:151 4.2 $X=0.702 $Y=0.448 $X2=0.732 $Y2=0.448
R176 d0:151 d0:152 4.06 $X=0.732 $Y=0.448 $X2=0.761 $Y2=0.448
R177 d0:151 d0:185 79.832 $X=0.732 $Y=0.448 $X2=0.732 $Y2=0.448
R178 d0:152 d0:153 5.46 $X=0.761 $Y=0.448 $X2=0.8 $Y2=0.448
R179 d0:153 d0:154 6.86 $X=0.8 $Y=0.448 $X2=0.849 $Y2=0.448
R180 d0:153 d0:187 79.832 $X=0.8 $Y=0.448 $X2=0.81 $Y2=0.448
R181 d0:153 d0:221 14.9333 $X=0.8 $Y=0.448 $X2=0.7985 $Y2=0.448
R182 d0:154 d0:155 5.46 $X=0.849 $Y=0.448 $X2=0.888 $Y2=0.448
R183 d0:155 d0:156 1.96 $X=0.888 $Y=0.448 $X2=0.902 $Y2=0.448
R184 d0:156 d0:157 2.52 $X=0.902 $Y=0.448 $X2=0.92 $Y2=0.448
R185 d0:157 d0:158 3.5 $X=0.92 $Y=0.448 $X2=0.945 $Y2=0.448
R186 d0:158 d0:159 2.94 $X=0.945 $Y=0.448 $X2=0.966 $Y2=0.448
R187 d0:159 d0:160 5.32 $X=0.966 $Y=0.448 $X2=1.004 $Y2=0.448
R188 d0:159 d0:189 79.832 $X=0.966 $Y=0.448 $X2=0.966 $Y2=0.448
R189 d0:160 d0:161 5.88 $X=1.004 $Y=0.448 $X2=1.046 $Y2=0.448
R190 d0:161 d0:162 5.6 $X=1.046 $Y=0.448 $X2=1.086 $Y2=0.448
R191 d0:161 d0:191 79.832 $X=1.046 $Y=0.448 $X2=1.044 $Y2=0.448
R192 d0:161 d0:226 14.9333 $X=1.046 $Y=0.448 $X2=1.046 $Y2=0.448
R193 d0:162 d0:163 5.04 $X=1.086 $Y=0.448 $X2=1.122 $Y2=0.448
R194 d0:163 d0:164 3.22 $X=1.122 $Y=0.448 $X2=1.145 $Y2=0.448
R195 d0:163 d0:193 79.832 $X=1.122 $Y=0.448 $X2=1.122 $Y2=0.448
R196 d0:164 d0:165 5.46 $X=1.145 $Y=0.448 $X2=1.184 $Y2=0.448
R197 d0:165 d0:166 7.7 $X=1.184 $Y=0.448 $X2=1.239 $Y2=0.448
R198 d0:165 d0:195 79.832 $X=1.184 $Y=0.448 $X2=1.2 $Y2=0.448
R199 d0:165 d0:233 14.9333 $X=1.184 $Y=0.448 $X2=1.1665 $Y2=0.448
R200 d0:166 d0:167 7.14 $X=1.239 $Y=0.448 $X2=1.29 $Y2=0.448
R201 d0:167 d0:168 5.46 $X=1.29 $Y=0.448 $X2=1.329 $Y2=0.448
R202 d0:167 d0:197 79.832 $X=1.29 $Y=0.448 $X2=1.278 $Y2=0.448
R203 d0:167 d0:236 14.9333 $X=1.29 $Y=0.448 $X2=1.2915 $Y2=0.448
R204 d0:168 d0:169 3.78 $X=1.329 $Y=0.448 $X2=1.356 $Y2=0.448
R205 d0:169 d0:170 4.48 $X=1.356 $Y=0.448 $X2=1.388 $Y2=0.448
R206 d0:169 d0:199 79.832 $X=1.356 $Y=0.448 $X2=1.356 $Y2=0.448
R207 d0:170 d0:171 5.46 $X=1.388 $Y=0.448 $X2=1.427 $Y2=0.448
R208 d0:171 d0:201 79.832 $X=1.427 $Y=0.448 $X2=1.434 $Y2=0.448
R209 d0:171 d0:243 14.9333 $X=1.427 $Y=0.448 $X2=1.4255 $Y2=0.448
R210 d0:203 d0:205 0.170053 $X=0.3125 $Y=0.448 $X2=0.3205 $Y2=0.448
R211 d0:204 d0:205 0.365653 $X=0.3435 $Y=0.448 $X2=0.3205 $Y2=0.448
R212 d0:206 d0:207 0.278214 $X=0.3985 $Y=0.448 $X2=0.416 $Y2=0.448
R213 d0:207 d0:208 0.341806 $X=0.416 $Y=0.448 $X2=0.4375 $Y2=0.448
R214 d0:208 d0:209 0.373424 $X=0.4375 $Y=0.448 $X2=0.459 $Y2=0.448
R215 d0:209 d0:210 0.651639 $X=0.459 $Y=0.448 $X2=0.498 $Y2=0.448
R216 d0:210 d0:211 0.410338 $X=0.498 $Y=0.448 $X2=0.5235 $Y2=0.448
R217 d0:211 d0:212 0.285986 $X=0.5235 $Y=0.448 $X2=0.5395 $Y2=0.448
R218 d0:212 d0:213 0.281045 $X=0.5395 $Y=0.448 $X2=0.5555 $Y2=0.448
R219 d0:213 d0:214 0.365653 $X=0.5555 $Y=0.448 $X2=0.5785 $Y2=0.448
R220 d0:215 d0:216 0.261284 $X=0.6645 $Y=0.448 $X2=0.6805 $Y2=0.448
R221 d0:216 d0:217 0.285986 $X=0.6805 $Y=0.448 $X2=0.6965 $Y2=0.448
R222 d0:217 d0:218 0.589079 $X=0.6965 $Y=0.448 $X2=0.732 $Y2=0.448
R223 d0:218 d0:219 0.571205 $X=0.732 $Y=0.448 $X2=0.7665 $Y2=0.448
R224 d0:219 d0:220 0.285986 $X=0.7665 $Y=0.448 $X2=0.7825 $Y2=0.448
R225 d0:220 d0:221 0.26326 $X=0.7825 $Y=0.448 $X2=0.7985 $Y2=0.448
R226 d0:221 d0:222 0.365653 $X=0.7985 $Y=0.448 $X2=0.8215 $Y2=0.448
R227 d0:222 d0:223 0.468812 $X=0.8215 $Y=0.448 $X2=0.849 $Y2=0.448
R228 d0:223 d0:224 0.651639 $X=0.849 $Y=0.448 $X2=0.888 $Y2=0.448
R229 d0:225 d0:229 0.444379 $X=0.9395 $Y=0.448 $X2=0.966 $Y2=0.448
R230 d0:226 d0:227 0.294112 $X=1.046 $Y=0.448 $X2=1.0645 $Y2=0.448
R231 d0:227 d0:230 0.325731 $X=1.0645 $Y=0.448 $X2=1.083 $Y2=0.448
R232 d0:228 d0:229 0.651639 $X=1.005 $Y=0.448 $X2=0.966 $Y2=0.448
R233 d0:230 d0:231 0.651639 $X=1.083 $Y=0.448 $X2=1.122 $Y2=0.448
R234 d0:231 d0:232 0.46396 $X=1.122 $Y=0.448 $X2=1.1505 $Y2=0.448
R235 d0:232 d0:233 0.285986 $X=1.1505 $Y=0.448 $X2=1.1665 $Y2=0.448
R236 d0:233 d0:234 0.275117 $X=1.1665 $Y=0.448 $X2=1.1825 $Y2=0.448
R237 d0:234 d0:235 0.365653 $X=1.1825 $Y=0.448 $X2=1.2055 $Y2=0.448
R238 d0:236 d0:237 0.267212 $X=1.2915 $Y=0.448 $X2=1.3075 $Y2=0.448
R239 d0:237 d0:238 0.285986 $X=1.3075 $Y=0.448 $X2=1.3235 $Y2=0.448
R240 d0:238 d0:239 0.51161 $X=1.3235 $Y=0.448 $X2=1.3545 $Y2=0.448
R241 d0:239 d0:240 0.365653 $X=1.3545 $Y=0.448 $X2=1.3775 $Y2=0.448
R242 d0:240 d0:241 0.283021 $X=1.3775 $Y=0.448 $X2=1.3935 $Y2=0.448
R243 d0:241 d0:242 0.285986 $X=1.3935 $Y=0.448 $X2=1.4095 $Y2=0.448
R244 d0:242 d0:243 0.257331 $X=1.4095 $Y=0.448 $X2=1.4255 $Y2=0.448
R245 d0:280 d0:285 0.931253 $X=0.303 $Y=0.3995 $X2=0.303 $Y2=0.3465
R246 d0:281 d0:282 0.571297 $X=0.303 $Y=0.1557 $X2=0.303 $Y2=0.184
R247 d0:282 d0:283 1.27404 $X=0.303 $Y=0.184 $X2=0.303 $Y2=0.247
R248 d0:283 d0:284 1.27404 $X=0.303 $Y=0.247 $X2=0.303 $Y2=0.31
R249 d0:284 d0:285 0.738136 $X=0.303 $Y=0.31 $X2=0.303 $Y2=0.3465
R250 d0:287 d0:288 1.27404 $X=0.927 $Y=0.184 $X2=0.927 $Y2=0.247
R251 d0:288 d0:289 1.27404 $X=0.927 $Y=0.247 $X2=0.927 $Y2=0.31
R252 d0:289 d0:290 0.738136 $X=0.927 $Y=0.31 $X2=0.927 $Y2=0.3465
R253 d0:292 d0:293 1.27404 $X=0.615 $Y=0.184 $X2=0.615 $Y2=0.247
R254 d0:293 d0:294 1.27404 $X=0.615 $Y=0.247 $X2=0.615 $Y2=0.31
R255 d0:294 d0:295 0.738136 $X=0.615 $Y=0.31 $X2=0.615 $Y2=0.3465
R256 d0:297 d0:298 1.27404 $X=1.239 $Y=0.184 $X2=1.239 $Y2=0.247
R257 d0:298 d0:299 1.27404 $X=1.239 $Y=0.247 $X2=1.239 $Y2=0.31
R258 d0:299 d0:300 0.738136 $X=1.239 $Y=0.31 $X2=1.239 $Y2=0.3465
R259 d0:247 d0:248 -521.5 $X=0.264 $Y=0.367 $X2=0.264 $Y2=0.127
R260 d0:249 d0:250 -521.5 $X=0.342 $Y=0.367 $X2=0.342 $Y2=0.127
R261 d0:251 d0:252 -521.5 $X=0.42 $Y=0.367 $X2=0.42 $Y2=0.127
R262 d0:253 d0:254 -521.5 $X=0.498 $Y=0.367 $X2=0.498 $Y2=0.127
R263 d0:255 d0:256 -521.5 $X=0.576 $Y=0.367 $X2=0.576 $Y2=0.127
R264 d0:257 d0:258 -521.5 $X=0.654 $Y=0.367 $X2=0.654 $Y2=0.127
R265 d0:259 d0:260 -521.5 $X=0.732 $Y=0.367 $X2=0.732 $Y2=0.127
R266 d0:261 d0:262 -521.5 $X=0.81 $Y=0.367 $X2=0.81 $Y2=0.127
R267 d0:133 d0:134 -521.5 $X=0.888 $Y=0.127 $X2=0.888 $Y2=0.367
R268 d0:263 d0:264 -521.5 $X=0.966 $Y=0.367 $X2=0.966 $Y2=0.127
R269 d0:265 d0:266 -521.5 $X=1.044 $Y=0.367 $X2=1.044 $Y2=0.127
R270 d0:267 d0:268 -521.5 $X=1.122 $Y=0.367 $X2=1.122 $Y2=0.127
R271 d0:269 d0:270 -521.5 $X=1.2 $Y=0.367 $X2=1.2 $Y2=0.127
R272 d0:271 d0:272 -521.5 $X=1.278 $Y=0.367 $X2=1.278 $Y2=0.127
R273 d0:273 d0:274 -521.5 $X=1.356 $Y=0.367 $X2=1.356 $Y2=0.127
R274 d0:275 d0:276 -521.5 $X=1.434 $Y=0.367 $X2=1.434 $Y2=0.127
R275 MN0@8:d MN0:d 0.01 $X=0.3301 $Y=0.247 $X2=0.285 $Y2=0.247
R276 MN0@4:d MN0@5:d 0.01 $X=0.9541 $Y=0.247 $X2=0.909 $Y2=0.247
R277 MN0@6:d MN0@7:d 0.01 $X=0.6421 $Y=0.247 $X2=0.597 $Y2=0.247
R278 MN0@2:d MN0@3:d 0.01 $X=1.2661 $Y=0.247 $X2=1.221 $Y2=0.247

*|NET s 2.82146f
*|P (s B 0.0 0.225 0.193)
*|I (MN0:s MN0 s B 0.0 0.2521 0.247)
*|I (MN0@8:s MN0@8 s B 0.0 0.3539 0.247)
*|I (MN1@8:s MN1@8 s B 0.0 0.5098 0.247)
*|I (MN0@6:s MN0@6 s B 0.0 0.6659 0.247)
*|I (MN0@5:s MN0@5 s B 0.0 0.8761 0.247)
*|I (MN0@4:s MN0@4 s B 0.0 0.9778 0.247)
*|I (MN1@4:s MN1@4 s B 0.0 1.1338 0.247)
*|I (MN0@2:s MN0@2 s B 0.0 1.2898 0.247)
*|I (MN1@2:s MN1@2 s B 0.0 1.4459 0.247)
*|I (X0_noxref:nd X0_noxref nd B 0.0 0.1978 0.247)
*|I (X1_noxref:nd X1_noxref nd B 0.0 1.5002 0.247)
*|I (X0_noxref:sx X0_noxref sx B 0.0 0.192 0.247)
*|I (MN0@5:b MN0@5 b B 0.0 0.888 0.247)
*|I (MN1@6:s MN1@6 s B 0.0 0.8219 0.247)
*|I (MN1@5:s MN1@5 s B 0.0 1.0321 0.247)
*|I (MN0@3:s MN0@3 s B 0.0 1.1881 0.247)
*|I (MN1@3:s MN1@3 s B 0.0 1.3442 0.247)
*|I (MN0@7:s MN0@7 s B 0.0 0.5642 0.247)
*|I (MN1@7:s MN1@7 s B 0.0 0.7202 0.247)
*|I (MN1:s MN1 s B 0.0 0.4082 0.247)
*|I (X1_noxref:sx X1_noxref sx B 0.0 1.506 0.247)
*|I (MN0:b MN0 b B 0.0 0.264 0.247)
*|I (MN0@8:b MN0@8 b B 0.0 0.342 0.247)
*|I (MN1:b MN1 b B 0.0 0.42 0.247)
*|I (MN1@8:b MN1@8 b B 0.0 0.498 0.247)
*|I (MN0@7:b MN0@7 b B 0.0 0.576 0.247)
*|I (MN0@6:b MN0@6 b B 0.0 0.654 0.247)
*|I (MN1@7:b MN1@7 b B 0.0 0.732 0.247)
*|I (MN1@6:b MN1@6 b B 0.0 0.81 0.247)
*|I (MN0@4:b MN0@4 b B 0.0 0.966 0.247)
*|I (MN1@5:b MN1@5 b B 0.0 1.044 0.247)
*|I (MN1@4:b MN1@4 b B 0.0 1.122 0.247)
*|I (MN0@3:b MN0@3 b B 0.0 1.2 0.247)
*|I (MN0@2:b MN0@2 b B 0.0 1.278 0.247)
*|I (MN1@3:b MN1@3 b B 0.0 1.356 0.247)
*|I (MN1@2:b MN1@2 b B 0.0 1.434 0.247)
*|S (s:1 0.381 0.631)
*|S (s:2 0.459 0.631)
*|S (s:3 0.537 0.631)
*|S (s:4 0.615 0.631)
*|S (s:5 0.693 0.631)
*|S (s:6 0.771 0.631)
*|S (s:7 0.849 0.631)
*|S (s:8 0.927 0.631)
*|S (s:9 1.005 0.631)