*|DSPF	1.5
*|DESIGN	nmos_cm_x
*|DATE	"Wed Jun 19 2025"
*|VENDOR	"Mentor Graphics Corporation"
*|PROGRAM	"Calibre xACT"
*|VERSION	"v2020.4_34.17"
*|DIVIDER	|
*|DELIMITER	:
*|BUSBIT	[]
* Corner Name: 12lp_11M_3Mx_4Cx_2Kx_2Gx_LB_nominal_detailed_25
* Nominal Temperature: 25C
* Circuit Temperature: 25C
*

* Integrated TICER reduction is not enabled.
* SHORT DELAY THRESHOLD: 2e-14
* Fill Mode: NG
* PEX REDUCE CC ABSOLUTE : disabled
* PEX REDUCE CC RATIO : disabled
* Delta transform mode : 344834

.subckt nmos_cm_x d0 d1 s

* Net:s ----------------


R1 s s:115 1.176
R2 s s:196 2.184
R3 s s:23 4.368
R4 s s:24 4.368
R5 s:24 s:117 1.176
R6 s:24 MN0@21:s 14
R7 s:24 s:197 2.184
R8 s:24 MN0@21:s 14
R9 s:24 s:19 4.368
R10 s:24 MN0@21:s 14
R11 s:24 s:25 4.368
R12 s:24 MN0@21:s 14
R13 s:25 s:119 1.176
R14 s:25 MN1@21:s 14
R15 s:25 s:198 2.184
R16 s:25 MN1@21:s 14
R17 s:25 s:26 4.368
R18 s:25 MN1@21:s 14
R19 s:26 s:121 1.176
R20 s:26 MN0@23:s 14
R21 s:26 s:199 2.184
R22 s:26 MN0@23:s 14
R23 s:26 s:27 4.368
R24 s:26 MN0@23:s 14
R25 s:27 s:123 1.176
R26 s:27 MN1@23:s 14
R27 s:27 s:200 2.184
R28 s:27 MN1@23:s 14
R29 s:27 s:77 1.092
R30 s:27 MN1@23:s 14
R31 s:200 s:122 3.36
R32 s:200 MN1@23:s 14
R33 s:199 s:120 3.36
R34 s:199 MN0@23:s 14
R35 s:198 s:118 3.36
R36 s:198 MN1@21:s 14
R37 s:19 s:115 1.176
R38 s:19 MN1@19:s 14
R39 s:19 s:196 2.184
R40 s:19 MN1@19:s 14
R41 s:19 s:23 4.368
R42 s:19 MN1@19:s 14
R43 s:23 s:113 1.176
R44 s:23 MN0@19:s 14
R45 s:23 s:195 2.184
R46 s:23 MN0@19:s 14
R47 s:23 s:22 4.368
R48 s:23 MN0@19:s 14
R49 s:22 s:111 1.176
R50 s:22 MN1@17:s 14
R51 s:22 s:194 2.184
R52 s:22 MN1@17:s 14
R53 s:22 s:21 4.368
R54 s:22 MN1@17:s 14
R55 s:21 s:109 1.176
R56 s:21 MN0@17:s 14
R57 s:21 s:193 2.184
R58 s:21 MN0@17:s 14
R59 s:21 s:20 4.368
R60 s:21 MN0@17:s 14
R61 s:20 s:107 1.176
R62 s:20 MN0@16:s 14
R63 s:20 s:192 2.184
R64 s:20 MN0@16:s 14
R65 s:20 s:76 1.092
R66 s:20 MN0@16:s 14
R67 s:192 s:106 3.36
R68 s:192 MN0@16:s 14
R69 s:193 s:108 3.36
R70 s:193 MN0@17:s 14
R71 s:194 s:110 3.36
R72 s:194 MN1@17:s 14
R73 s:195 s:112 3.36
R74 s:195 MN0@19:s 14
R75 s:196 s:114 3.36
R76 s:196 MN1@19:s 14
R77 s:114 s:97 9.408
R78 s:97 s:14 1.176
R79 s:14 s:187 2.184
R80 s:14 MN1@11:s 14
R81 s:14 s:13 4.368
R82 s:14 MN1@11:s 14
R83 s:14 s:15 4.368
R84 s:14 MN1@11:s 14
R85 s:15 s:99 1.176
R86 s:15 MN0@13:s 14
R87 s:15 s:188 2.184
R88 s:15 MN0@13:s 14
R89 s:15 s:16 4.368
R90 s:15 MN0@13:s 14
R91 s:16 s:101 1.176
R92 s:16 MN1@13:s 14
R93 s:16 s:189 2.184
R94 s:16 MN1@13:s 14
R95 s:16 s:17 4.368
R96 s:16 MN1@13:s 14
R97 s:17 s:103 1.176
R98 s:17 MN0@15:s 14
R99 s:17 s:190 2.184
R100 s:17 MN0@15:s 14
R101 s:17 s:18 4.368
R102 s:17 MN0@15:s 14
R103 s:18 s:105 1.176
R104 s:18 MN1@15:s 14
R105 s:18 s:191 2.184
R106 s:18 MN1@15:s 14
R107 s:18 s:73 1.092
R108 s:18 MN1@15:s 14
R109 s:191 s:104 3.36
R110 s:191 MN1@15:s 14
R111 s:190 s:102 3.36
R112 s:190 MN0@15:s 14
R113 s:189 s:100 3.36
R114 s:189 MN1@13:s 14
R115 s:188 s:98 3.36
R116 s:188 MN0@13:s 14
R117 s:13 s:93 1.176
R118 s:13 MN0@11:s 14
R119 s:13 s:186 2.184
R120 s:13 MN0@11:s 14
R121 s:13 s:12 4.368
R122 s:13 MN0@11:s 14
R123 s:12 s:91 1.176
R124 s:12 MN1@9:s 14
R125 s:12 s:185 2.184
R126 s:12 MN1@9:s 14
R127 s:12 s:11 4.368
R128 s:12 MN1@9:s 14
R129 s:11 s:89 1.176
R130 s:11 MN0@9:s 14
R131 s:11 s:184 2.184
R132 s:11 MN0@9:s 14
R133 s:11 s:10 4.368
R134 s:11 MN0@9:s 14
R135 s:10 s:87 1.176
R136 s:10 MN0@8:s 14
R137 s:10 s:183 2.184
R138 s:10 MN0@8:s 14
R139 s:10 s:72 1.092
R140 s:10 MN0@8:s 14
R141 s:183 s:86 3.36
R142 s:183 MN0@8:s 14
R143 s:184 s:88 3.36
R144 s:184 MN0@9:s 14
R145 s:185 s:90 3.36
R146 s:185 MN1@9:s 14
R147 s:186 s:92 3.36
R148 s:186 MN0@11:s 14
R149 s:187 s:96 3.36
R150 s:187 MN1@11:s 14
R151 s:96 s:65 9.408
R152 s:65 s:5 1.176
R153 s:5 s:94 1.008
R154 s:5 MN1@3:s 14
R155 s:5 s:4 4.368
R156 s:5 MN1@3:s 14
R157 s:5 s:6 4.368
R158 s:5 MN1@3:s 14
R159 s:6 s:69 1.176
R160 s:6 MN0@5:s 14
R161 s:6 s:179 2.184
R162 s:6 MN0@5:s 14
R163 s:6 s:7 4.368
R164 s:6 MN0@5:s 14
R165 s:7 s:71 1.176
R166 s:7 MN1@5:s 14
R167 s:7 s:180 2.184
R168 s:7 MN1@5:s 14
R169 s:7 s:8 4.368
R170 s:7 MN1@5:s 14
R171 s:8 s:75 1.176
R172 s:8 MN0@7:s 14
R173 s:8 s:181 2.184
R174 s:8 MN0@7:s 14
R175 s:8 s:9 4.368
R176 s:8 MN0@7:s 14
R177 s:9 s:79 1.176
R178 s:9 MN1@7:s 14
R179 s:9 s:182 2.184
R180 s:9 MN1@7:s 14
R181 s:9 s:67 1.092
R182 s:9 MN1@7:s 14
R183 s:182 s:78 3.36
R184 s:182 MN1@7:s 14
R185 s:181 s:74 3.36
R186 s:181 MN0@7:s 14
R187 s:180 s:70 3.36
R188 s:180 MN1@5:s 14
R189 s:179 s:68 3.36
R190 s:179 MN0@5:s 14
R191 s:4 s:63 1.176
R192 s:4 MN0@3:s 14
R193 s:4 s:177 2.184
R194 s:4 MN0@3:s 14
R195 s:4 s:3 4.368
R196 s:4 MN0@3:s 14
R197 s:3 s:61 1.176
R198 s:3 MN1@1:s 14
R199 s:3 s:176 2.184
R200 s:3 MN1@1:s 14
R201 s:3 s:2 4.368
R202 s:3 MN1@1:s 14
R203 s:2 s:59 1.176
R204 s:2 MN0@1:s 14
R205 s:2 s:175 2.184
R206 s:2 MN0@1:s 14
R207 s:2 s:0 4.368
R208 s:2 MN0@1:s 14
R209 s:0 s:55 1.176
R210 s:0 MN0@0:s 14
R211 s:0 s:174 2.184
R212 s:0 MN0@0:s 14
R213 s:0 s:66 1.092
R214 s:0 MN0@0:s 14
R215 s:174 s:54 3.36
R216 s:174 MN0@0:s 14
R217 s:175 s:58 3.36
R218 s:175 MN0@1:s 14
R219 s:176 s:60 3.36
R220 s:176 MN1@1:s 14
R221 s:177 s:62 3.36
R222 s:177 MN0@3:s 14
R223 s:94 s:178 1.176
R224 s:178 s:64 3.36
R225 s:178 MN1@3:s 14
R226 s:115 s:132 9.408
R227 s:132 s:205 3.36
R228 s:205 s:28 2.184
R229 s:205 MN1@27:s 14
R230 s:28 s:133 1.176
R231 s:28 MN1@27:s 14
R232 s:28 s:32 4.368
R233 s:28 MN1@27:s 14
R234 s:28 s:33 4.368
R235 s:28 MN1@27:s 14
R236 s:33 s:135 1.176
R237 s:33 MN0@29:s 14
R238 s:33 s:206 2.184
R239 s:33 MN0@29:s 14
R240 s:33 s:34 4.368
R241 s:33 MN0@29:s 14
R242 s:34 s:137 1.176
R243 s:34 MN1@29:s 14
R244 s:34 s:207 2.184
R245 s:34 MN1@29:s 14
R246 s:34 s:35 4.368
R247 s:34 MN1@29:s 14
R248 s:35 s:139 1.176
R249 s:35 MN0@31:s 14
R250 s:35 s:208 2.184
R251 s:35 MN0@31:s 14
R252 s:35 s:36 4.368
R253 s:35 MN0@31:s 14
R254 s:36 s:141 1.176
R255 s:36 MN1@31:s 14
R256 s:36 s:209 2.184
R257 s:36 MN1@31:s 14
R258 s:36 s:81 1.092
R259 s:36 MN1@31:s 14
R260 s:209 s:140 3.36
R261 s:209 MN1@31:s 14
R262 s:208 s:138 3.36
R263 s:208 MN0@31:s 14
R264 s:207 s:136 3.36
R265 s:207 MN1@29:s 14
R266 s:206 s:134 3.36
R267 s:206 MN0@29:s 14
R268 s:32 s:131 1.176
R269 s:32 MN0@27:s 14
R270 s:32 s:204 2.184
R271 s:32 MN0@27:s 14
R272 s:32 s:31 4.368
R273 s:32 MN0@27:s 14
R274 s:31 s:129 1.176
R275 s:31 MN1@25:s 14
R276 s:31 s:203 2.184
R277 s:31 MN1@25:s 14
R278 s:31 s:30 4.368
R279 s:31 MN1@25:s 14
R280 s:30 s:127 1.176
R281 s:30 MN0@25:s 14
R282 s:30 s:202 2.184
R283 s:30 MN0@25:s 14
R284 s:30 s:29 4.368
R285 s:30 MN0@25:s 14
R286 s:29 s:125 1.176
R287 s:29 MN0@24:s 14
R288 s:29 s:201 2.184
R289 s:29 MN0@24:s 14
R290 s:29 s:80 1.092
R291 s:29 MN0@24:s 14
R292 s:201 s:124 3.36
R293 s:201 MN0@24:s 14
R294 s:202 s:126 3.36
R295 s:202 MN0@25:s 14
R296 s:203 s:128 3.36
R297 s:203 MN1@25:s 14
R298 s:204 s:130 3.36
R299 s:204 MN0@27:s 14
R300 s:133 s:166 9.408
R301 s:166 s:214 3.36
R302 s:214 s:37 2.184
R303 s:214 MN1@35:s 14
R304 s:37 s:167 1.176
R305 s:37 MN1@35:s 14
R306 s:37 s:41 4.368
R307 s:37 MN1@35:s 14
R308 s:37 s:42 4.368
R309 s:37 MN1@35:s 14
R310 s:42 s:169 1.176
R311 s:42 MN0@37:s 14
R312 s:42 s:215 2.184
R313 s:42 MN0@37:s 14
R314 s:42 s:43 4.368
R315 s:42 MN0@37:s 14
R316 s:43 s:171 1.176
R317 s:43 MN1@37:s 14
R318 s:43 s:216 2.184
R319 s:43 MN1@37:s 14
R320 s:43 s:44 4.368
R321 s:43 MN1@37:s 14
R322 s:44 s:173 1.176
R323 s:44 MN0@39:s 14
R324 s:44 s:217 2.184
R325 s:44 MN0@39:s 14
R326 s:44 s:1 4.368
R327 s:44 MN0@39:s 14
R328 s:1 s:57 1.176
R329 s:1 MN1@39:s 14
R330 s:1 s:218 2.184
R331 s:1 MN1@39:s 14
R332 s:1 s:83 1.092
R333 s:1 MN1@39:s 14
R334 s:218 s:56 3.36
R335 s:218 MN1@39:s 14
R336 s:217 s:172 3.36
R337 s:217 MN0@39:s 14
R338 s:216 s:170 3.36
R339 s:216 MN1@37:s 14
R340 s:215 s:168 3.36
R341 s:215 MN0@37:s 14
R342 s:41 s:165 1.176
R343 s:41 MN0@35:s 14
R344 s:41 s:213 2.184
R345 s:41 MN0@35:s 14
R346 s:41 s:40 4.368
R347 s:41 MN0@35:s 14
R348 s:40 s:163 1.176
R349 s:40 MN1@33:s 14
R350 s:40 s:212 2.184
R351 s:40 MN1@33:s 14
R352 s:40 s:39 4.368
R353 s:40 MN1@33:s 14
R354 s:39 s:161 1.176
R355 s:39 MN0@33:s 14
R356 s:39 s:211 2.184
R357 s:39 MN0@33:s 14
R358 s:39 s:38 4.368
R359 s:39 MN0@33:s 14
R360 s:38 s:159 1.176
R361 s:38 MN0@32:s 14
R362 s:38 s:210 2.184
R363 s:38 MN0@32:s 14
R364 s:38 s:82 1.092
R365 s:38 MN0@32:s 14
R366 s:210 s:158 3.36
R367 s:210 MN0@32:s 14
R368 s:211 s:160 3.36
R369 s:211 MN0@33:s 14
R370 s:212 s:162 3.36
R371 s:212 MN1@33:s 14
R372 s:213 s:164 3.36
R373 s:213 MN0@35:s 14
R374 s:167 s:45 9.352
R375 s:45 s:95 1.008
R376 s:45 s:49 1.764
R377 s:45 s:50 1.764
R378 s:50 s:151 1.12
R379 s:50 MN0@0:b 14
R380 s:50 s:150 1.12
R381 s:50 MN0@0:b 14
R382 s:50 s:51 3.528
R383 s:50 MN0@0:b 14
R384 s:51 s:153 1.12
R385 s:51 MN0@0:b 14
R386 s:51 s:152 1.12
R387 s:51 MN0@0:b 14
R388 s:51 s:52 3.528
R389 s:51 MN0@0:b 14
R390 s:52 s:155 1.12
R391 s:52 MN0@0:b 14
R392 s:52 s:154 1.12
R393 s:52 MN0@0:b 14
R394 s:52 s:53 3.528
R395 s:52 MN0@0:b 14
R396 s:53 s:157 1.12
R397 s:53 MN0@0:b 14
R398 s:53 s:156 1.12
R399 s:53 MN0@0:b 14
R400 s:53 s:85 5.572
R401 s:53 MN0@0:b 14
R402 s:49 s:149 1.12
R403 s:49 MN0@0:b 14
R404 s:49 s:148 1.12
R405 s:49 MN0@0:b 14
R406 s:49 s:48 3.528
R407 s:49 MN0@0:b 14
R408 s:48 s:147 1.12
R409 s:48 MN0@0:b 14
R410 s:48 s:146 1.12
R411 s:48 MN0@0:b 14
R412 s:48 s:47 3.528
R413 s:48 MN0@0:b 14
R414 s:47 s:145 1.12
R415 s:47 MN0@0:b 14
R416 s:47 s:144 1.12
R417 s:47 MN0@0:b 14
R418 s:47 s:46 3.528
R419 s:47 MN0@0:b 14
R420 s:46 s:143 1.12
R421 s:46 MN0@0:b 14
R422 s:46 s:142 1.12
R423 s:46 MN0@0:b 14
R424 s:46 s:84 5.572
R425 s:46 MN0@0:b 14
R426 s:197 s:116 3.36
R427 s:197 MN0@21:s 14
R428 MN0@1:s MN1@0:s 0.01
R429 MN1@1:s MN0@2:s 0.01
R430 MN0@3:s MN1@2:s 0.01
R431 MN1@3:s MN0@4:s 0.01
R432 MN0@5:s MN1@4:s 0.01
R433 MN1@5:s MN0@6:s 0.01
R434 MN0@7:s MN1@6:s 0.01
R435 MN0@9:s MN1@8:s 0.01
R436 MN1@9:s MN0@10:s 0.01
R437 MN0@11:s MN1@10:s 0.01
R438 MN1@11:s MN0@12:s 0.01
R439 MN0@13:s MN1@12:s 0.01
R440 MN1@13:s MN0@14:s 0.01
R441 MN0@15:s MN1@14:s 0.01
R442 MN0@17:s MN1@16:s 0.01
R443 MN1@17:s MN0@18:s 0.01
R444 MN0@19:s MN1@18:s 0.01
R445 MN1@19:s MN0@20:s 0.01
R446 MN0@21:s MN1@20:s 0.01
R447 MN1@21:s MN0@22:s 0.01
R448 MN0@23:s MN1@22:s 0.01
R449 MN0@25:s MN1@24:s 0.01
R450 MN1@25:s MN0@26:s 0.01
R451 MN0@27:s MN1@26:s 0.01
R452 MN1@27:s MN0@28:s 0.01
R453 MN0@29:s MN1@28:s 0.01
R454 MN1@29:s MN0@30:s 0.01
R455 MN0@31:s MN1@30:s 0.01
R456 MN0@0:b MN0@1:b 0.01
R457 MN0@1:b MN1@0:b 0.01
R458 MN1@0:b MN1@1:b 0.01
R459 MN1@1:b MN0@2:b 0.01
R460 MN0@2:b MN0@3:b 0.01
R461 MN0@3:b MN1@2:b 0.01
R462 MN1@2:b MN1@3:b 0.01
R463 MN1@3:b MN0@4:b 0.01
R464 MN0@4:b MN0@5:b 0.01
R465 MN0@5:b MN1@4:b 0.01
R466 MN1@4:b MN1@5:b 0.01
R467 MN1@5:b MN0@6:b 0.01
R468 MN0@6:b MN0@7:b 0.01
R469 MN0@7:b MN1@6:b 0.01
R470 MN1@6:b MN1@7:b 0.01
R471 MN1@7:b MN0@8:b 0.01
R472 MN0@8:b MN0@9:b 0.01
R473 MN0@9:b MN1@8:b 0.01
R474 MN1@8:b MN1@9:b 0.01
R475 MN1@9:b MN0@10:b 0.01
R476 MN0@10:b MN0@11:b 0.01
R477 MN0@11:b MN1@10:b 0.01
R478 MN1@10:b MN1@11:b 0.01
R479 MN1@11:b MN0@12:b 0.01
R480 MN0@12:b MN0@13:b 0.01
R481 MN0@13:b MN1@12:b 0.01
R482 MN1@12:b MN1@13:b 0.01
R483 MN1@13:b MN0@14:b 0.01
R484 MN0@14:b MN0@15:b 0.01
R485 MN0@15:b MN1@14:b 0.01
R486 MN1@14:b MN1@15:b 0.01
R487 MN1@15:b MN0@16:b 0.01
R488 MN0@16:b MN0@17:b 0.01
R489 MN0@17:b MN1@16:b 0.01
R490 MN1@16:b MN1@17:b 0.01
R491 MN1@17:b MN0@18:b 0.01
R492 MN0@18:b MN0@19:b 0.01
R493 MN0@19:b MN1@18:b 0.01
R494 MN1@18:b MN1@19:b 0.01
R495 MN1@19:b MN0@20:b 0.01
R496 MN0@20:b MN0@21:b 0.01
R497 MN0@21:b MN1@20:b 0.01
R498 MN1@20:b MN1@21:b 0.01
R499 MN1@21:b MN0@22:b 0.01
R500 MN0@22:b MN0@23:b 0.01
R501 MN0@23:b MN1@22:b 0.01
R502 MN1@22:b MN1@23:b 0.01
R503 MN1@23:b MN0@24:b 0.01
R504 MN0@24:b MN0@25:b 0.01
R505 MN0@25:b MN1@24:b 0.01
R506 MN1@24:b MN1@25:b 0.01
R507 MN1@25:b MN0@26:b 0.01
R508 MN0@26:b MN0@27:b 0.01
R509 MN0@27:b MN1@26:b 0.01
R510 MN1@26:b MN1@27:b 0.01
R511 MN1@27:b MN0@28:b 0.01
R512 MN0@28:b MN0@29:b 0.01
R513 MN0@29:b MN1@28:b 0.01
R514 MN1@28:b MN1@29:b 0.01
R515 MN1@29:b MN0@30:b 0.01
R516 MN0@30:b MN0@31:b 0.01
R517 MN0@31:b MN1@30:b 0.01
R518 MN1@30:b MN1@31:b 0.01
R519 MN1@31:b MN0@32:b 0.01
R520 MN0@32:b MN0@33:b 0.01
R521 MN0@33:b MN1@32:b 0.01
R522 MN1@32:b MN1@33:b 0.01
R523 MN1@33:b MN0@34:b 0.01
R524 MN0@34:b MN0@35:b 0.01
R525 MN0@35:b MN1@34:b 0.01
R526 MN1@34:b MN1@35:b 0.01
R527 MN1@35:b MN0@36:b 0.01
R528 MN0@36:b MN0@37:b 0.01
R529 MN0@37:b MN1@36:b 0.01
R530 MN1@36:b MN1@37:b 0.01
R531 MN1@37:b MN0@38:b 0.01
R532 MN0@38:b MN0@39:b 0.01
R533 MN0@39:b MN1@38:b 0.01
R534 MN1@38:b MN1@39:b 0.01
R535 MN0@33:s MN1@32:s 0.01
R536 MN1@33:s MN0@34:s 0.01
R537 MN0@35:s MN1@34:s 0.01
R538 MN1@35:s MN0@36:s 0.01
R539 MN0@37:s MN1@36:s 0.01
R540 MN1@37:s MN0@38:s 0.01
R541 MN0@39:s MN1@38:s 0.01
R542 MN1@39:s MN2@0:s 0.01
C1 s:24 0 8.82e-15
C2 s:24 0 1.6380000000000002e-14
C3 s:24 0 3.2760000000000004e-14
C4 s:24 0 3.2760000000000004e-14
C5 s:25 0 8.82e-15
C6 s:25 0 1.6380000000000002e-14
C7 s:25 0 3.2760000000000004e-14
C8 s:26 0 8.82e-15
C9 s:26 0 1.6380000000000002e-14
C10 s:26 0 3.2760000000000004e-14
C11 s:27 0 8.82e-15
C12 s:27 0 1.6380000000000002e-14
C13 s:27 0 8.190000000000001e-15
C14 s:200 0 2.5200000000000002e-14
C15 s:199 0 2.5200000000000002e-14
C16 s:198 0 2.5200000000000002e-14
C17 s:19 0 8.82e-15
C18 s:19 0 1.6380000000000002e-14
C19 s:19 0 3.2760000000000004e-14
C20 s:23 0 8.82e-15
C21 s:23 0 1.6380000000000002e-14
C22 s:23 0 3.2760000000000004e-14
C23 s:22 0 8.82e-15
C24 s:22 0 1.6380000000000002e-14
C25 s:22 0 3.2760000000000004e-14
C26 s:21 0 8.82e-15
C27 s:21 0 1.6380000000000002e-14
C28 s:21 0 3.2760000000000004e-14
C29 s:20 0 8.82e-15
C30 s:20 0 1.6380000000000002e-14
C31 s:20 0 8.190000000000001e-15
C32 s:192 0 2.5200000000000002e-14
C33 s:193 0 2.5200000000000002e-14
C34 s:194 0 2.5200000000000002e-14
C35 s:195 0 2.5200000000000002e-14
C36 s:196 0 2.5200000000000002e-14
C37 s:114 0 7.056e-14
C38 s:97 0 8.82e-15
C39 s:14 0 1.6380000000000002e-14
C40 s:14 0 3.2760000000000004e-14
C41 s:14 0 3.2760000000000004e-14
C42 s:15 0 8.82e-15
C43 s:15 0 1.6380000000000002e-14
C44 s:15 0 3.2760000000000004e-14
C45 s:16 0 8.82e-15
C46 s:16 0 1.6380000000000002e-14
C47 s:16 0 3.2760000000000004e-14
C48 s:17 0 8.82e-15
C49 s:17 0 1.6380000000000002e-14
C50 s:17 0 3.2760000000000004e-14
C51 s:18 0 8.82e-15
C52 s:18 0 1.6380000000000002e-14
C53 s:18 0 8.190000000000001e-15
C54 s:191 0 2.5200000000000002e-14
C55 s:190 0 2.5200000000000002e-14
C56 s:189 0 2.5200000000000002e-14
C57 s:188 0 2.5200000000000002e-14
C58 s:13 0 8.82e-15
C59 s:13 0 1.6380000000000002e-14
C60 s:13 0 3.2760000000000004e-14
C61 s:12 0 8.82e-15
C62 s:12 0 1.6380000000000002e-14
C63 s:12 0 3.2760000000000004e-14
C64 s:11 0 8.82e-15
C65 s:11 0 1.6380000000000002e-14
C66 s:11 0 3.2760000000000004e-14
C67 s:10 0 8.82e-15
C68 s:10 0 1.6380000000000002e-14
C69 s:10 0 8.190000000000001e-15
C70 s:183 0 2.5200000000000002e-14
C71 s:184 0 2.5200000000000002e-14
C72 s:185 0 2.5200000000000002e-14
C73 s:186 0 2.5200000000000002e-14
C74 s:187 0 2.5200000000000002e-14
C75 s:96 0 7.056e-14
C76 s:65 0 8.82e-15
C77 s:5 0 7.56e-15
C78 s:5 0 3.2760000000000004e-14
C79 s:5 0 3.2760000000000004e-14
C80 s:6 0 8.82e-15
C81 s:6 0 1.6380000000000002e-14
C82 s:6 0 3.2760000000000004e-14
C83 s:7 0 8.82e-15
C84 s:7 0 1.6380000000000002e-14
C85 s:7 0 3.2760000000000004e-14
C86 s:8 0 8.82e-15
C87 s:8 0 1.6380000000000002e-14
C88 s:8 0 3.2760000000000004e-14
C89 s:9 0 8.82e-15
C90 s:9 0 1.6380000000000002e-14
C91 s:9 0 8.190000000000001e-15
C92 s:182 0 2.5200000000000002e-14
C93 s:181 0 2.5200000000000002e-14
C94 s:180 0 2.5200000000000002e-14
C95 s:179 0 2.5200000000000002e-14
C96 s:4 0 8.82e-15
C97 s:4 0 1.6380000000000002e-14
C98 s:4 0 3.2760000000000004e-14
C99 s:3 0 8.82e-15
C100 s:3 0 1.6380000000000002e-14
C101 s:3 0 3.2760000000000004e-14
C102 s:2 0 8.82e-15
C103 s:2 0 1.6380000000000002e-14
C104 s:2 0 3.2760000000000004e-14
C105 s:0 0 8.82e-15
C106 s:0 0 1.6380000000000002e-14
C107 s:0 0 8.190000000000001e-15
C108 s:174 0 2.5200000000000002e-14
C109 s:175 0 2.5200000000000002e-14
C110 s:176 0 2.5200000000000002e-14
C111 s:177 0 2.5200000000000002e-14
C112 s:94 0 8.82e-15
C113 s:178 0 2.5200000000000002e-14
C114 s:115 0 7.056e-14
C115 s:132 0 2.5200000000000002e-14
C116 s:205 0 1.6380000000000002e-14
C117 s:28 0 8.82e-15
C118 s:28 0 3.2760000000000004e-14
C119 s:28 0 3.2760000000000004e-14
C120 s:33 0 8.82e-15
C121 s:33 0 1.6380000000000002e-14
C122 s:33 0 3.2760000000000004e-14
C123 s:34 0 8.82e-15
C124 s:34 0 1.6380000000000002e-14
C125 s:34 0 3.2760000000000004e-14
C126 s:35 0 8.82e-15
C127 s:35 0 1.6380000000000002e-14
C128 s:35 0 3.2760000000000004e-14
C129 s:36 0 8.82e-15
C130 s:36 0 1.6380000000000002e-14
C131 s:36 0 8.190000000000001e-15
C132 s:209 0 2.5200000000000002e-14
C133 s:208 0 2.5200000000000002e-14
C134 s:207 0 2.5200000000000002e-14
C135 s:206 0 2.5200000000000002e-14
C136 s:32 0 8.82e-15
C137 s:32 0 1.6380000000000002e-14
C138 s:32 0 3.2760000000000004e-14
C139 s:31 0 8.82e-15
C140 s:31 0 1.6380000000000002e-14
C141 s:31 0 3.2760000000000004e-14
C142 s:30 0 8.82e-15
C143 s:30 0 1.6380000000000002e-14
C144 s:30 0 3.2760000000000004e-14
C145 s:29 0 8.82e-15
C146 s:29 0 1.6380000000000002e-14
C147 s:29 0 8.190000000000001e-15
C148 s:201 0 2.5200000000000002e-14
C149 s:202 0 2.5200000000000002e-14
C150 s:203 0 2.5200000000000002e-14
C151 s:204 0 2.5200000000000002e-14
C152 s:133 0 7.056e-14
C153 s:166 0 2.5200000000000002e-14
C154 s:214 0 1.6380000000000002e-14
C155 s:37 0 8.82e-15
C156 s:37 0 3.2760000000000004e-14
C157 s:37 0 3.2760000000000004e-14
C158 s:42 0 8.82e-15
C159 s:42 0 1.6380000000000002e-14
C160 s:42 0 3.2760000000000004e-14
C161 s:43 0 8.82e-15
C162 s:43 0 1.6380000000000002e-14
C163 s:43 0 3.2760000000000004e-14
C164 s:44 0 8.82e-15
C165 s:44 0 1.6380000000000002e-14
C166 s:44 0 3.2760000000000004e-14
C167 s:1 0 8.82e-15
C168 s:1 0 1.6380000000000002e-14
C169 s:1 0 8.190000000000001e-15
C170 s:218 0 2.5200000000000002e-14
C171 s:217 0 2.5200000000000002e-14
C172 s:216 0 2.5200000000000002e-14
C173 s:215 0 2.5200000000000002e-14
C174 s:41 0 8.82e-15
C175 s:41 0 1.6380000000000002e-14
C176 s:41 0 3.2760000000000004e-14
C177 s:40 0 8.82e-15
C178 s:40 0 1.6380000000000002e-14
C179 s:40 0 3.2760000000000004e-14
C180 s:39 0 8.82e-15
C181 s:39 0 1.6380000000000002e-14
C182 s:39 0 3.2760000000000004e-14
C183 s:38 0 8.82e-15
C184 s:38 0 1.6380000000000002e-14
C185 s:38 0 8.190000000000001e-15
C186 s:210 0 2.5200000000000002e-14
C187 s:211 0 2.5200000000000002e-14
C188 s:212 0 2.5200000000000002e-14
C189 s:213 0 2.5200000000000002e-14
C190 s:167 0 7.014e-14
C191 s:45 0 7.56e-15
C192 s:45 0 1.3230000000000001e-14
C193 s:45 0 1.3230000000000001e-14
C194 s:50 0 8.400000000000001e-15
C195 s:50 0 8.400000000000001e-15
C196 s:50 0 2.6460000000000002e-14
C197 s:51 0 8.400000000000001e-15
C198 s:51 0 8.400000000000001e-15
C199 s:51 0 2.6460000000000002e-14
C200 s:52 0 8.400000000000001e-15
C201 s:52 0 8.400000000000001e-15
C202 s:52 0 2.6460000000000002e-14
C203 s:53 0 8.400000000000001e-15
C204 s:53 0 8.400000000000001e-15
C205 s:53 0 4.1790000000000004e-14
C206 s:49 0 8.400000000000001e-15
C207 s:49 0 8.400000000000001e-15
C208 s:49 0 2.6460000000000002e-14
C209 s:48 0 8.400000000000001e-15
C210 s:48 0 8.400000000000001e-15
C211 s:48 0 2.6460000000000002e-14
C212 s:47 0 8.400000000000001e-15
C213 s:47 0 8.400000000000001e-15
C214 s:47 0 2.6460000000000002e-14
C215 s:46 0 8.400000000000001e-15
C216 s:46 0 8.400000000000001e-15
C217 s:46 0 4.1790000000000004e-14
C218 s:197 0 2.5200000000000002e-14


* Net:d0 ----------------


R543 d0 d0:32 6.02
R544 d0 d0:22 10.108
R545 d0 d0:52 4.368
R546 d0 d0:53 4.368
R547 d0:53 d0:170 3.36
R548 d0:53 MN0@20:d 14
R549 d0:53 d0:169 3.36
R550 d0:53 MN0@20:d 14
R551 d0:53 d0:50 4.368
R552 d0:53 MN0@20:d 14
R553 d0:53 d0:54 8.736
R554 d0:53 MN0@20:d 14
R555 d0:54 d0:172 3.36
R556 d0:54 MN0@22:d 14
R557 d0:54 d0:171 3.36
R558 d0:54 MN0@22:d 14
R559 d0:54 d0:134 1.008
R560 d0:54 MN0@22:d 14
R561 d0:50 d0:32 6.02
R562 d0:50 d0:22 10.108
R563 d0:50 d0:52 4.368
R564 d0:52 d0:168 3.36
R565 d0:52 MN0@18:d 14
R566 d0:52 d0:167 3.36
R567 d0:52 MN0@18:d 14
R568 d0:52 d0:51 8.736
R569 d0:52 MN0@18:d 14
R570 d0:51 d0:166 3.36
R571 d0:51 MN0@16:d 14
R572 d0:51 d0:165 3.36
R573 d0:51 MN0@16:d 14
R574 d0:51 d0:133 1.008
R575 d0:51 MN0@16:d 14
R576 d0:22 d0:46 6.02
R577 d0:22 d0:26 1.344
R578 d0:22 d0:27 2.184
R579 d0:27 d0:156 1.12
R580 d0:27 MN0@0:g 342
R581 d0:27 MN0@1:g 342
R582 d0:27 MN1@0:g 342
R583 d0:27 MN1@1:g 342
R584 d0:27 MN0@2:g 342
R585 d0:27 MN0@3:g 342
R586 d0:27 MN1@2:g 342
R587 d0:27 MN1@3:g 342
R588 d0:27 MN0@4:g 342
R589 d0:27 MN0@5:g 342
R590 d0:27 MN1@4:g 342
R591 d0:27 MN1@5:g 342
R592 d0:27 MN0@6:g 342
R593 d0:27 MN0@7:g 342
R594 d0:27 MN1@6:g 342
R595 d0:27 MN1@7:g 342
R596 d0:27 MN0@8:g 342
R597 d0:27 MN0@9:g 342
R598 d0:27 MN1@8:g 342
R599 d0:27 MN1@9:g 342
R600 d0:27 MN0@10:g 342
R601 d0:27 MN0@11:g 342
R602 d0:27 MN1@10:g 342
R603 d0:27 MN1@11:g 342
R604 d0:27 MN0@12:g 342
R605 d0:27 MN0@13:g 342
R606 d0:27 MN1@12:g 342
R607 d0:27 MN1@13:g 342
R608 d0:27 MN0@14:g 342
R609 d0:27 MN0@15:g 342
R610 d0:27 MN1@14:g 342
R611 d0:27 MN1@15:g 342
R612 d0:27 MN0@16:g 342
R613 d0:27 MN0@17:g 342
R614 d0:27 MN1@16:g 342
R615 d0:27 MN1@17:g 342
R616 d0:27 MN0@18:g 342
R617 d0:27 MN0@19:g 342
R618 d0:27 MN1@18:g 342
R619 d0:27 MN1@19:g 342
R620 d0:27 MN0@20:g 342
R621 d0:27 MN0@21:g 342
R622 d0:27 MN1@20:g 342
R623 d0:27 MN1@21:g 342
R624 d0:27 MN0@22:g 342
R625 d0:27 MN0@23:g 342
R626 d0:27 MN1@22:g 342
R627 d0:27 MN1@23:g 342
R628 d0:27 MN0@24:g 342
R629 d0:27 MN0@25:g 342
R630 d0:27 MN1@24:g 342
R631 d0:27 MN1@25:g 342
R632 d0:27 MN0@26:g 342
R633 d0:27 MN0@27:g 342
R634 d0:27 MN1@26:g 342
R635 d0:27 MN1@27:g 342
R636 d0:27 MN0@28:g 342
R637 d0:27 MN0@29:g 342
R638 d0:27 MN1@28:g 342
R639 d0:27 MN1@29:g 342
R640 d0:27 MN0@30:g 342
R641 d0:27 MN0@31:g 342
R642 d0:27 MN1@30:g 342
R643 d0:27 MN1@31:g 342
R644 d0:27 MN0@32:g 342
R645 d0:27 MN0@33:g 342
R646 d0:27 MN1@32:g 342
R647 d0:27 MN1@33:g 342
R648 d0:27 MN0@34:g 342
R649 d0:27 MN0@35:g 342
R650 d0:27 MN1@34:g 342
R651 d0:27 MN1@35:g 342
R652 d0:27 MN0@36:g 342
R653 d0:27 MN0@37:g 342
R654 d0:27 MN1@36:g 342
R655 d0:27 MN1@37:g 342
R656 d0:27 MN0@38:g 342
R657 d0:27 MN0@39:g 342
R658 d0:27 MN1@38:g 342
R659 d0:27 MN1@39:g 342
R660 d0:27 d0:155 1.12
R661 d0:27 MN0@0:g 342
R662 d0:27 MN0@1:g 342
R663 d0:27 MN1@0:g 342
R664 d0:27 MN1@1:g 342
R665 d0:27 MN0@2:g 342
R666 d0:27 MN0@3:g 342
R667 d0:27 MN1@2:g 342
R668 d0:27 MN1@3:g 342
R669 d0:27 MN0@4:g 342
R670 d0:27 MN0@5:g 342
R671 d0:27 MN1@4:g 342
R672 d0:27 MN1@5:g 342
R673 d0:27 MN0@6:g 342
R674 d0:27 MN0@7:g 342
R675 d0:27 MN1@6:g 342
R676 d0:27 MN1@7:g 342
R677 d0:27 MN0@8:g 342
R678 d0:27 MN0@9:g 342
R679 d0:27 MN1@8:g 342
R680 d0:27 MN1@9:g 342
R681 d0:27 MN0@10:g 342
R682 d0:27 MN0@11:g 342
R683 d0:27 MN1@10:g 342
R684 d0:27 MN1@11:g 342
R685 d0:27 MN0@12:g 342
R686 d0:27 MN0@13:g 342
R687 d0:27 MN1@12:g 342
R688 d0:27 MN1@13:g 342
R689 d0:27 MN0@14:g 342
R690 d0:27 MN0@15:g 342
R691 d0:27 MN1@14:g 342
R692 d0:27 MN1@15:g 342
R693 d0:27 MN0@16:g 342
R694 d0:27 MN0@17:g 342
R695 d0:27 MN1@16:g 342
R696 d0:27 MN1@17:g 342
R697 d0:27 MN0@18:g 342
R698 d0:27 MN0@19:g 342
R699 d0:27 MN1@18:g 342
R700 d0:27 MN1@19:g 342
R701 d0:27 MN0@20:g 342
R702 d0:27 MN0@21:g 342
R703 d0:27 MN1@20:g 342
R704 d0:27 MN1@21:g 342
R705 d0:27 MN0@22:g 342
R706 d0:27 MN0@23:g 342
R707 d0:27 MN1@22:g 342
R708 d0:27 MN1@23:g 342
R709 d0:27 MN0@24:g 342
R710 d0:27 MN0@25:g 342
R711 d0:27 MN1@24:g 342
R712 d0:27 MN1@25:g 342
R713 d0:27 MN0@26:g 342
R714 d0:27 MN0@27:g 342
R715 d0:27 MN1@26:g 342
R716 d0:27 MN1@27:g 342
R717 d0:27 MN0@28:g 342
R718 d0:27 MN0@29:g 342
R719 d0:27 MN1@28:g 342
R720 d0:27 MN1@29:g 342
R721 d0:27 MN0@30:g 342
R722 d0:27 MN0@31:g 342
R723 d0:27 MN1@30:g 342
R724 d0:27 MN1@31:g 342
R725 d0:27 MN0@32:g 342
R726 d0:27 MN0@33:g 342
R727 d0:27 MN1@32:g 342
R728 d0:27 MN1@33:g 342
R729 d0:27 MN0@34:g 342
R730 d0:27 MN0@35:g 342
R731 d0:27 MN1@34:g 342
R732 d0:27 MN1@35:g 342
R733 d0:27 MN0@36:g 342
R734 d0:27 MN0@37:g 342
R735 d0:27 MN1@36:g 342
R736 d0:27 MN1@37:g 342
R737 d0:27 MN0@38:g 342
R738 d0:27 MN0@39:g 342
R739 d0:27 MN1@38:g 342
R740 d0:27 MN1@39:g 342
R741 d0:27 d0:28 3.528
R742 d0:27 MN0@0:g 342
R743 d0:27 MN0@1:g 342
R744 d0:27 MN1@0:g 342
R745 d0:27 MN1@1:g 342
R746 d0:27 MN0@2:g 342
R747 d0:27 MN0@3:g 342
R748 d0:27 MN1@2:g 342
R749 d0:27 MN1@3:g 342
R750 d0:27 MN0@4:g 342
R751 d0:27 MN0@5:g 342
R752 d0:27 MN1@4:g 342
R753 d0:27 MN1@5:g 342
R754 d0:27 MN0@6:g 342
R755 d0:27 MN0@7:g 342
R756 d0:27 MN1@6:g 342
R757 d0:27 MN1@7:g 342
R758 d0:27 MN0@8:g 342
R759 d0:27 MN0@9:g 342
R760 d0:27 MN1@8:g 342
R761 d0:27 MN1@9:g 342
R762 d0:27 MN0@10:g 342
R763 d0:27 MN0@11:g 342
R764 d0:27 MN1@10:g 342
R765 d0:27 MN1@11:g 342
R766 d0:27 MN0@12:g 342
R767 d0:27 MN0@13:g 342
R768 d0:27 MN1@12:g 342
R769 d0:27 MN1@13:g 342
R770 d0:27 MN0@14:g 342
R771 d0:27 MN0@15:g 342
R772 d0:27 MN1@14:g 342
R773 d0:27 MN1@15:g 342
R774 d0:27 MN0@16:g 342
R775 d0:27 MN0@17:g 342
R776 d0:27 MN1@16:g 342
R777 d0:27 MN1@17:g 342
R778 d0:27 MN0@18:g 342
R779 d0:27 MN0@19:g 342
R780 d0:27 MN1@18:g 342
R781 d0:27 MN1@19:g 342
R782 d0:27 MN0@20:g 342
R783 d0:27 MN0@21:g 342
R784 d0:27 MN1@20:g 342
R785 d0:27 MN1@21:g 342
R786 d0:27 MN0@22:g 342
R787 d0:27 MN0@23:g 342
R788 d0:27 MN1@22:g 342
R789 d0:27 MN1@23:g 342
R790 d0:27 MN0@24:g 342
R791 d0:27 MN0@25:g 342
R792 d0:27 MN1@24:g 342
R793 d0:27 MN1@25:g 342
R794 d0:27 MN0@26:g 342
R795 d0:27 MN0@27:g 342
R796 d0:27 MN1@26:g 342
R797 d0:27 MN1@27:g 342
R798 d0:27 MN0@28:g 342
R799 d0:27 MN0@29:g 342
R800 d0:27 MN1@28:g 342
R801 d0:27 MN1@29:g 342
R802 d0:27 MN0@30:g 342
R803 d0:27 MN0@31:g 342
R804 d0:27 MN1@30:g 342
R805 d0:27 MN1@31:g 342
R806 d0:27 MN0@32:g 342
R807 d0:27 MN0@33:g 342
R808 d0:27 MN1@32:g 342
R809 d0:27 MN1@33:g 342
R810 d0:27 MN0@34:g 342
R811 d0:27 MN0@35:g 342
R812 d0:27 MN1@34:g 342
R813 d0:27 MN1@35:g 342
R814 d0:27 MN0@36:g 342
R815 d0:27 MN0@37:g 342
R816 d0:27 MN1@36:g 342
R817 d0:27 MN1@37:g 342
R818 d0:27 MN0@38:g 342
R819 d0:27 MN0@39:g 342
R820 d0:27 MN1@38:g 342
R821 d0:27 MN1@39:g 342
R822 d0:28 d0:158 1.12
R823 d0:28 MN0@0:g 342
R824 d0:28 MN0@1:g 342
R825 d0:28 MN1@0:g 342
R826 d0:28 MN1@1:g 342
R827 d0:28 MN0@2:g 342
R828 d0:28 MN0@3:g 342
R829 d0:28 MN1@2:g 342
R830 d0:28 MN1@3:g 342
R831 d0:28 MN0@4:g 342
R832 d0:28 MN0@5:g 342
R833 d0:28 MN1@4:g 342
R834 d0:28 MN1@5:g 342
R835 d0:28 MN0@6:g 342
R836 d0:28 MN0@7:g 342
R837 d0:28 MN1@6:g 342
R838 d0:28 MN1@7:g 342
R839 d0:28 MN0@8:g 342
R840 d0:28 MN0@9:g 342
R841 d0:28 MN1@8:g 342
R842 d0:28 MN1@9:g 342
R843 d0:28 MN0@10:g 342
R844 d0:28 MN0@11:g 342
R845 d0:28 MN1@10:g 342
R846 d0:28 MN1@11:g 342
R847 d0:28 MN0@12:g 342
R848 d0:28 MN0@13:g 342
R849 d0:28 MN1@12:g 342
R850 d0:28 MN1@13:g 342
R851 d0:28 MN0@14:g 342
R852 d0:28 MN0@15:g 342
R853 d0:28 MN1@14:g 342
R854 d0:28 MN1@15:g 342
R855 d0:28 MN0@16:g 342
R856 d0:28 MN0@17:g 342
R857 d0:28 MN1@16:g 342
R858 d0:28 MN1@17:g 342
R859 d0:28 MN0@18:g 342
R860 d0:28 MN0@19:g 342
R861 d0:28 MN1@18:g 342
R862 d0:28 MN1@19:g 342
R863 d0:28 MN0@20:g 342
R864 d0:28 MN0@21:g 342
R865 d0:28 MN1@20:g 342
R866 d0:28 MN1@21:g 342
R867 d0:28 MN0@22:g 342
R868 d0:28 MN0@23:g 342
R869 d0:28 MN1@22:g 342
R870 d0:28 MN1@23:g 342
R871 d0:28 MN0@24:g 342
R872 d0:28 MN0@25:g 342
R873 d0:28 MN1@24:g 342
R874 d0:28 MN1@25:g 342
R875 d0:28 MN0@26:g 342
R876 d0:28 MN0@27:g 342
R877 d0:28 MN1@26:g 342
R878 d0:28 MN1@27:g 342
R879 d0:28 MN0@28:g 342
R880 d0:28 MN0@29:g 342
R881 d0:28 MN1@28:g 342
R882 d0:28 MN1@29:g 342
R883 d0:28 MN0@30:g 342
R884 d0:28 MN0@31:g 342
R885 d0:28 MN1@30:g 342
R886 d0:28 MN1@31:g 342
R887 d0:28 MN0@32:g 342
R888 d0:28 MN0@33:g 342
R889 d0:28 MN1@32:g 342
R890 d0:28 MN1@33:g 342
R891 d0:28 MN0@34:g 342
R892 d0:28 MN0@35:g 342
R893 d0:28 MN1@34:g 342
R894 d0:28 MN1@35:g 342
R895 d0:28 MN0@36:g 342
R896 d0:28 MN0@37:g 342
R897 d0:28 MN1@36:g 342
R898 d0:28 MN1@37:g 342
R899 d0:28 MN0@38:g 342
R900 d0:28 MN0@39:g 342
R901 d0:28 MN1@38:g 342
R902 d0:28 MN1@39:g 342
R903 d0:28 d0:157 1.12
R904 d0:28 MN0@0:g 342
R905 d0:28 MN0@1:g 342
R906 d0:28 MN1@0:g 342
R907 d0:28 MN1@1:g 342
R908 d0:28 MN0@2:g 342
R909 d0:28 MN0@3:g 342
R910 d0:28 MN1@2:g 342
R911 d0:28 MN1@3:g 342
R912 d0:28 MN0@4:g 342
R913 d0:28 MN0@5:g 342
R914 d0:28 MN1@4:g 342
R915 d0:28 MN1@5:g 342
R916 d0:28 MN0@6:g 342
R917 d0:28 MN0@7:g 342
R918 d0:28 MN1@6:g 342
R919 d0:28 MN1@7:g 342
R920 d0:28 MN0@8:g 342
R921 d0:28 MN0@9:g 342
R922 d0:28 MN1@8:g 342
R923 d0:28 MN1@9:g 342
R924 d0:28 MN0@10:g 342
R925 d0:28 MN0@11:g 342
R926 d0:28 MN1@10:g 342
R927 d0:28 MN1@11:g 342
R928 d0:28 MN0@12:g 342
R929 d0:28 MN0@13:g 342
R930 d0:28 MN1@12:g 342
R931 d0:28 MN1@13:g 342
R932 d0:28 MN0@14:g 342
R933 d0:28 MN0@15:g 342
R934 d0:28 MN1@14:g 342
R935 d0:28 MN1@15:g 342
R936 d0:28 MN0@16:g 342
R937 d0:28 MN0@17:g 342
R938 d0:28 MN1@16:g 342
R939 d0:28 MN1@17:g 342
R940 d0:28 MN0@18:g 342
R941 d0:28 MN0@19:g 342
R942 d0:28 MN1@18:g 342
R943 d0:28 MN1@19:g 342
R944 d0:28 MN0@20:g 342
R945 d0:28 MN0@21:g 342
R946 d0:28 MN1@20:g 342
R947 d0:28 MN1@21:g 342
R948 d0:28 MN0@22:g 342
R949 d0:28 MN0@23:g 342
R950 d0:28 MN1@22:g 342
R951 d0:28 MN1@23:g 342
R952 d0:28 MN0@24:g 342
R953 d0:28 MN0@25:g 342
R954 d0:28 MN1@24:g 342
R955 d0:28 MN1@25:g 342
R956 d0:28 MN0@26:g 342
R957 d0:28 MN0@27:g 342
R958 d0:28 MN1@26:g 342
R959 d0:28 MN1@27:g 342
R960 d0:28 MN0@28:g 342
R961 d0:28 MN0@29:g 342
R962 d0:28 MN1@28:g 342
R963 d0:28 MN1@29:g 342
R964 d0:28 MN0@30:g 342
R965 d0:28 MN0@31:g 342
R966 d0:28 MN1@30:g 342
R967 d0:28 MN1@31:g 342
R968 d0:28 MN0@32:g 342
R969 d0:28 MN0@33:g 342
R970 d0:28 MN1@32:g 342
R971 d0:28 MN1@33:g 342
R972 d0:28 MN0@34:g 342
R973 d0:28 MN0@35:g 342
R974 d0:28 MN1@34:g 342
R975 d0:28 MN1@35:g 342
R976 d0:28 MN0@36:g 342
R977 d0:28 MN0@37:g 342
R978 d0:28 MN1@36:g 342
R979 d0:28 MN1@37:g 342
R980 d0:28 MN0@38:g 342
R981 d0:28 MN0@39:g 342
R982 d0:28 MN1@38:g 342