*|DSPF	1.5
*|DESIGN	nmos_dp_10x19x1_222_1
*|DATE	"Wed Jun 19 2025"
*|VENDOR	"Mentor Graphics Corporation"
*|PROGRAM	"Calibre xACT"
*|VERSION	"v2020.4_34.17"
*|DIVIDER	|
*|DELIMITER	:
*|BUSBIT	[]
* Corner Name: 12lp_11M_3Mx_4Cx_2Kx_2Gx_LB_nominal_detailed_25
* Nominal Temperature: 25C
* Circuit Temperature: 25C
*

* Integrated TICER reduction is not enabled.
* SHORT DELAY THRESHOLD: 2e-14
* Fill Mode: NG
* PEX REDUCE CC ABSOLUTE : disabled
* PEX REDUCE CC RATIO : disabled
* Delta transform mode : 344834

.subckt nmos_dp_10x19x1_222_1 b d0 d1 g0 g1 s

* Net:b ----------------


R1 b b:8 12.096
R2 b b:9 12.096
R3 b:9 b:37 1.12
R4 b:9 MN1@0:b 14
R5 b:9 b:36 1.12
R6 b:9 MN1@0:b 14
R7 b:9 b:10 3.528
R8 b:9 MN1@0:b 14
R9 b:10 b:39 1.12
R10 b:10 MN1@0:b 14
R11 b:10 b:38 1.12
R12 b:10 MN1@0:b 14
R13 b:10 b:11 3.528
R14 b:10 MN1@0:b 14
R15 b:11 b:41 1.12
R16 b:11 MN1@0:b 14
R17 b:11 b:40 1.12
R18 b:11 MN1@0:b 14
R19 b:11 b:12 3.528
R20 b:11 MN1@0:b 14
R21 b:12 b:43 1.12
R22 b:12 MN1@0:b 14
R23 b:12 b:42 1.12
R24 b:12 MN1@0:b 14
R25 b:12 b:13 3.528
R26 b:12 MN1@0:b 14
R27 b:13 b:45 1.12
R28 b:13 MN1@0:b 14
R29 b:13 b:44 1.12
R30 b:13 MN1@0:b 14
R31 b:13 b:14 3.528
R32 b:13 MN1@0:b 14
R33 b:14 b:47 1.12
R34 b:14 MN1@0:b 14
R35 b:14 b:46 1.12
R36 b:14 MN1@0:b 14
R37 b:14 b:15 3.528
R38 b:14 MN1@0:b 14
R39 b:15 b:49 1.12
R40 b:15 MN1@0:b 14
R41 b:15 b:48 1.12
R42 b:15 MN1@0:b 14
R43 b:15 b:16 3.528
R44 b:15 MN1@0:b 14
R45 b:16 b:51 1.12
R46 b:16 MN1@0:b 14
R47 b:16 b:50 1.12
R48 b:16 MN1@0:b 14
R49 b:16 b:17 3.528
R50 b:16 MN1@0:b 14
R51 b:17 b:53 1.12
R52 b:17 MN1@0:b 14
R53 b:17 b:52 1.12
R54 b:17 MN1@0:b 14
R55 b:17 b:55 7.084
R56 b:17 MN1@0:b 14
R57 b:8 b:35 1.12
R58 b:8 MN0@0:b 14
R59 b:8 b:34 1.12
R60 b:8 MN0@0:b 14
R61 b:8 b:7 3.528
R62 b:8 MN0@0:b 14
R63 b:7 b:33 1.12
R64 b:7 MN0@0:b 14
R65 b:7 b:32 1.12
R66 b:7 MN0@0:b 14
R67 b:7 b:6 3.528
R68 b:7 MN0@0:b 14
R69 b:6 b:31 1.12
R70 b:6 MN0@0:b 14
R71 b:6 b:30 1.12
R72 b:6 MN0@0:b 14
R73 b:6 b:5 3.528
R74 b:6 MN0@0:b 14
R75 b:5 b:29 1.12
R76 b:5 MN0@0:b 14
R77 b:5 b:28 1.12
R78 b:5 MN0@0:b 14
R79 b:5 b:4 3.528
R80 b:5 MN0@0:b 14
R81 b:4 b:27 1.12
R82 b:4 MN0@0:b 14
R83 b:4 b:26 1.12
R84 b:4 MN0@0:b 14
R85 b:4 b:3 3.528
R86 b:4 MN0@0:b 14
R87 b:3 b:25 1.12
R88 b:3 MN0@0:b 14
R89 b:3 b:24 1.12
R90 b:3 MN0@0:b 14
R91 b:3 b:2 3.528
R92 b:3 MN0@0:b 14
R93 b:2 b:23 1.12
R94 b:2 MN0@0:b 14
R95 b:2 b:22 1.12
R96 b:2 MN0@0:b 14
R97 b:2 b:1 3.528
R98 b:2 MN0@0:b 14
R99 b:1 b:21 1.12
R100 b:1 MN0@0:b 14
R101 b:1 b:20 1.12
R102 b:1 MN0@0:b 14
R103 b:1 b:0 3.528
R104 b:1 MN0@0:b 14
R105 b:0 b:19 1.12
R106 b:0 MN0@0:b 14
R107 b:0 b:18 1.12
R108 b:0 MN0@0:b 14
R109 b:0 b:54 7.084
R110 b:0 MN0@0:b 14
R111 MN0@0:b MN0@1:b 0.01
R112 MN0@1:b MN0@2:b 0.01
R113 MN0@2:b MN0@3:b 0.01
R114 MN0@3:b MN0@4:b 0.01
R115 MN0@4:b MN0@5:b 0.01
R116 MN0@5:b MN0@6:b 0.01
R117 MN0@6:b MN0@7:b 0.01
R118 MN0@7:b MN0@8:b 0.01
R119 MN0@8:b MN0@9:b 0.01
R120 MN0@9:b MN0@10:b 0.01
R121 MN0@10:b MN0@11:b 0.01
R122 MN0@11:b MN0@12:b 0.01
R123 MN0@12:b MN0@13:b 0.01
R124 MN0@13:b MN0@14:b 0.01
R125 MN0@14:b MN0@15:b 0.01
R126 MN0@15:b MN0@16:b 0.01
R127 MN0@16:b MN0@17:b 0.01
R128 MN0@17:b MN0@18:b 0.01
R129 MN1@0:b MN1@1:b 0.01
R130 MN1@1:b MN1@2:b 0.01
R131 MN1@2:b MN1@3:b 0.01
R132 MN1@3:b MN1@4:b 0.01
R133 MN1@4:b MN1@5:b 0.01
R134 MN1@5:b MN1@6:b 0.01
R135 MN1@6:b MN1@7:b 0.01
R136 MN1@7:b MN1@8:b 0.01
R137 MN1@8:b MN1@9:b 0.01
R138 MN1@9:b MN1@10:b 0.01
R139 MN1@10:b MN1@11:b 0.01
R140 MN1@11:b MN1@12:b 0.01
R141 MN1@12:b MN1@13:b 0.01
R142 MN1@13:b MN1@14:b 0.01
R143 MN1@14:b MN1@15:b 0.01
R144 MN1@15:b MN1@16:b 0.01
R145 MN1@16:b MN1@17:b 0.01
R146 MN1@17:b MN1@18:b 0.01
C1 b:9 0 8.400000000000001e-15
C2 b:9 0 8.400000000000001e-15
C3 b:9 0 2.6460000000000002e-14
C4 b:10 0 8.400000000000001e-15
C5 b:10 0 8.400000000000001e-15
C6 b:10 0 2.6460000000000002e-14
C7 b:11 0 8.400000000000001e-15
C8 b:11 0 8.400000000000001e-15
C9 b:11 0 2.6460000000000002e-14
C10 b:12 0 8.400000000000001e-15
C11 b:12 0 8.400000000000001e-15
C12 b:12 0 2.6460000000000002e-14
C13 b:13 0 8.400000000000001e-15
C14 b:13 0 8.400000000000001e-15
C15 b:13 0 2.6460000000000002e-14
C16 b:14 0 8.400000000000001e-15
C17 b:14 0 8.400000000000001e-15
C18 b:14 0 2.6460000000000002e-14
C19 b:15 0 8.400000000000001e-15
C20 b:15 0 8.400000000000001e-15
C21 b:15 0 2.6460000000000002e-14
C22 b:16 0 8.400000000000001e-15
C23 b:16 0 8.400000000000001e-15
C24 b:16 0 2.6460000000000002e-14
C25 b:17 0 8.400000000000001e-15
C26 b:17 0 8.400000000000001e-15
C27 b:17 0 5.313e-14
C28 b:8 0 8.400000000000001e-15
C29 b:8 0 8.400000000000001e-15
C30 b:8 0 2.6460000000000002e-14
C31 b:7 0 8.400000000000001e-15
C32 b:7 0 8.400000000000001e-15
C33 b:7 0 2.6460000000000002e-14
C34 b:6 0 8.400000000000001e-15
C35 b:6 0 8.400000000000001e-15
C36 b:6 0 2.6460000000000002e-14
C37 b:5 0 8.400000000000001e-15
C38 b:5 0 8.400000000000001e-15
C39 b:5 0 2.6460000000000002e-14
C40 b:4 0 8.400000000000001e-15
C41 b:4 0 8.400000000000001e-15
C42 b:4 0 2.6460000000000002e-14
C43 b:3 0 8.400000000000001e-15
C44 b:3 0 8.400000000000001e-15
C45 b:3 0 2.6460000000000002e-14
C46 b:2 0 8.400000000000001e-15
C47 b:2 0 8.400000000000001e-15
C48 b:2 0 2.6460000000000002e-14
C49 b:1 0 8.400000000000001e-15
C50 b:1 0 8.400000000000001e-15
C51 b:1 0 2.6460000000000002e-14
C52 b:0 0 8.400000000000001e-15
C53 b:0 0 8.400000000000001e-15
C54 b:0 0 5.313e-14


* Net:s ----------------


R147 s s:50 1.092
R148 s s:51 1.092
R149 s:51 s:45 2.184
R150 s:51 s:106 1.008
R151 s:51 s:21 4.368
R152 s:21 s:20 2.184
R153 s:21 MN1@0:s 14
R154 s:21 s:129 1.092
R155 s:21 MN1@0:s 14
R156 s:21 s:23 4.368
R157 s:21 MN1@0:s 14
R158 s:23 s:22 2.184
R159 s:23 MN1@1:s 14
R160 s:23 s:131 1.092
R161 s:23 MN1@1:s 14
R162 s:23 s:25 4.368
R163 s:23 MN1@1:s 14
R164 s:25 s:24 2.184
R165 s:25 MN1@3:s 14
R166 s:25 s:133 1.092
R167 s:25 MN1@3:s 14
R168 s:25 s:27 4.368
R169 s:25 MN1@3:s 14
R170 s:27 s:26 2.184
R171 s:27 MN1@5:s 14
R172 s:27 s:135 1.092
R173 s:27 MN1@5:s 14
R174 s:27 s:29 4.368
R175 s:27 MN1@5:s 14
R176 s:29 s:28 2.184
R177 s:29 MN1@7:s 14
R178 s:29 s:137 1.092
R179 s:29 MN1@7:s 14
R180 s:29 s:31 4.368
R181 s:29 MN1@7:s 14
R182 s:31 s:30 2.184
R183 s:31 MN1@9:s 14
R184 s:31 s:139 1.092
R185 s:31 MN1@9:s 14
R186 s:31 s:48 1.54
R187 s:31 MN1@9:s 14
R188 s:48 s:42 2.184
R189 s:48 s:100 1.008
R190 s:48 s:49 2.184
R191 s:49 s:43 2.184
R192 s:49 s:102 1.008
R193 s:49 s:33 0.644
R194 s:33 s:32 2.184
R195 s:33 MN1@11:s 14
R196 s:33 s:141 1.092
R197 s:33 MN1@11:s 14
R198 s:33 s:35 4.368
R199 s:33 MN1@11:s 14
R200 s:35 s:34 2.184
R201 s:35 MN1@13:s 14
R202 s:35 s:143 1.092
R203 s:35 MN1@13:s 14
R204 s:35 s:37 4.368
R205 s:35 MN1@13:s 14
R206 s:37 s:36 2.184
R207 s:37 MN1@15:s 14
R208 s:37 s:145 1.092
R209 s:37 MN1@15:s 14
R210 s:37 s:39 4.368
R211 s:37 MN1@15:s 14
R212 s:39 s:38 2.184
R213 s:39 MN1@17:s 14
R214 s:39 s:147 1.092
R215 s:39 MN1@17:s 14
R216 s:39 s:95 3.276
R217 s:39 MN1@17:s 14
R218 s:147 s:146 3.528
R219 s:147 MN1@17:s 14
R220 s:146 s:90 3.192
R221 s:146 MN1@17:s 14
R222 s:38 s:91 3.444
R223 s:38 MN1@17:s 14
R224 s:38 s:36 4.368
R225 s:38 MN1@17:s 14
R226 s:38 s:93 3.276
R227 s:38 MN1@17:s 14
R228 s:36 s:89 3.444
R229 s:36 MN1@15:s 14
R230 s:36 s:34 4.368
R231 s:36 MN1@15:s 14
R232 s:34 s:87 3.444
R233 s:34 MN1@13:s 14
R234 s:34 s:32 4.368
R235 s:34 MN1@13:s 14
R236 s:32 s:85 3.444
R237 s:32 MN1@11:s 14
R238 s:32 s:43 0.644
R239 s:32 MN1@11:s 14
R240 s:43 s:103 1.008
R241 s:43 s:42 2.184
R242 s:42 s:101 1.008
R243 s:42 s:30 1.54
R244 s:30 s:83 3.444
R245 s:30 MN1@9:s 14
R246 s:30 s:28 4.368
R247 s:30 MN1@9:s 14
R248 s:28 s:81 3.444
R249 s:28 MN1@7:s 14
R250 s:28 s:26 4.368
R251 s:28 MN1@7:s 14
R252 s:26 s:79 3.444
R253 s:26 MN1@5:s 14
R254 s:26 s:24 4.368
R255 s:26 MN1@5:s 14
R256 s:24 s:77 3.444
R257 s:24 MN1@3:s 14
R258 s:24 s:22 4.368
R259 s:24 MN1@3:s 14
R260 s:22 s:75 3.444
R261 s:22 MN1@1:s 14
R262 s:22 s:20 4.368
R263 s:22 MN1@1:s 14
R264 s:20 s:73 3.444
R265 s:20 MN1@0:s 14
R266 s:20 s:45 4.368
R267 s:20 MN1@0:s 14
R268 s:45 s:107 1.008
R269 s:45 s:44 2.184
R270 s:44 s:105 1.008
R271 s:44 s:50 2.184
R272 s:44 s:18 6.552
R273 s:18 s:71 3.444
R274 s:18 MN0@17:s 14
R275 s:18 s:19 2.184
R276 s:18 MN0@17:s 14
R277 s:18 s:16 4.368
R278 s:18 MN0@17:s 14
R279 s:16 s:69 3.444
R280 s:16 MN0@15:s 14
R281 s:16 s:17 2.184
R282 s:16 MN0@15:s 14
R283 s:16 s:14 4.368
R284 s:16 MN0@15:s 14
R285 s:14 s:67 3.444
R286 s:14 MN0@13:s 14
R287 s:14 s:15 2.184
R288 s:14 MN0@13:s 14
R289 s:14 s:12 4.368
R290 s:14 MN0@13:s 14
R291 s:12 s:65 3.444
R292 s:12 MN0@11:s 14
R293 s:12 s:13 2.184
R294 s:12 MN0@11:s 14
R295 s:12 s:41 0.644
R296 s:12 MN0@11:s 14
R297 s:41 s:99 1.008
R298 s:41 s:47 2.184
R299 s:41 s:40 2.184
R300 s:40 s:97 1.008
R301 s:40 s:46 2.184
R302 s:40 s:10 1.54
R303 s:10 s:63 3.444
R304 s:10 MN0@9:s 14
R305 s:10 s:11 2.184
R306 s:10 MN0@9:s 14
R307 s:10 s:8 4.368
R308 s:10 MN0@9:s 14
R309 s:8 s:61 3.444
R310 s:8 MN0@7:s 14
R311 s:8 s:9 2.184
R312 s:8 MN0@7:s 14
R313 s:8 s:6 4.368
R314 s:8 MN0@7:s 14
R315 s:6 s:59 3.444
R316 s:6 MN0@5:s 14
R317 s:6 s:7 2.184
R318 s:6 MN0@5:s 14
R319 s:6 s:4 4.368
R320 s:6 MN0@5:s 14
R321 s:4 s:57 3.444
R322 s:4 MN0@3:s 14
R323 s:4 s:5 2.184
R324 s:4 MN0@3:s 14
R325 s:4 s:2 4.368
R326 s:4 MN0@3:s 14
R327 s:2 s:55 3.444
R328 s:2 MN0@1:s 14
R329 s:2 s:3 2.184
R330 s:2 MN0@1:s 14
R331 s:2 s:0 4.368
R332 s:2 MN0@1:s 14
R333 s:0 s:53 3.444
R334 s:0 MN0@0:s 14
R335 s:0 s:1 2.184
R336 s:0 MN0@0:s 14
R337 s:0 s:92 1.092
R338 s:0 MN0@0:s 14
R339 s:1 s:109 1.092
R340 s:1 MN0@0:s 14
R341 s:1 s:94 1.092
R342 s:1 MN0@0:s 14
R343 s:1 s:3 4.368
R344 s:1 MN0@0:s 14
R345 s:3 s:111 1.092
R346 s:3 MN0@1:s 14
R347 s:3 s:5 4.368
R348 s:3 MN0@1:s 14
R349 s:5 s:113 1.092
R350 s:5 MN0@3:s 14
R351 s:5 s:7 4.368
R352 s:5 MN0@3:s 14
R353 s:7 s:115 1.092
R354 s:7 MN0@5:s 14
R355 s:7 s:9 4.368
R356 s:7 MN0@5:s 14
R357 s:9 s:117 1.092
R358 s:9 MN0@7:s 14
R359 s:9 s:11 4.368
R360 s:9 MN0@7:s 14
R361 s:11 s:119 1.092
R362 s:11 MN0@9:s 14
R363 s:11 s:46 1.54
R364 s:11 MN0@9:s 14
R365 s:46 s:96 1.008
R366 s:46 s:47 2.184
R367 s:47 s:98 1.008
R368 s:47 s:13 0.644
R369 s:13 s:121 1.092
R370 s:13 MN0@11:s 14
R371 s:13 s:15 4.368
R372 s:13 MN0@11:s 14
R373 s:15 s:123 1.092
R374 s:15 MN0@13:s 14
R375 s:15 s:17 4.368
R376 s:15 MN0@13:s 14
R377 s:17 s:125 1.092
R378 s:17 MN0@15:s 14
R379 s:17 s:19 4.368
R380 s:17 MN0@15:s 14
R381 s:19 s:127 1.092
R382 s:19 MN0@17:s 14
R383 s:19 s:50 6.552
R384 s:19 MN0@17:s 14
R385 s:50 s:104 1.008
R386 s:127 s:126 3.528
R387 s:127 MN0@17:s 14
R388 s:126 s:70 3.192
R389 s:126 MN0@17:s 14
R390 s:125 s:124 3.528
R391 s:125 MN0@15:s 14
R392 s:124 s:68 3.192
R393 s:124 MN0@15:s 14
R394 s:123 s:122 3.528
R395 s:123 MN0@13:s 14
R396 s:122 s:66 3.192
R397 s:122 MN0@13:s 14
R398 s:121 s:120 3.528
R399 s:121 MN0@11:s 14
R400 s:120 s:64 3.192
R401 s:120 MN0@11:s 14
R402 s:119 s:118 3.528
R403 s:119 MN0@9:s 14
R404 s:118 s:62 3.192
R405 s:118 MN0@9:s 14
R406 s:117 s:116 3.528
R407 s:117 MN0@7:s 14
R408 s:116 s:60 3.192
R409 s:116 MN0@7:s 14
R410 s:115 s:114 3.528
R411 s:115 MN0@5:s 14
R412 s:114 s:58 3.192
R413 s:114 MN0@5:s 14
R414 s:113 s:112 3.528
R415 s:113 MN0@3:s 14
R416 s:112 s:56 3.192
R417 s:112 MN0@3:s 14
R418 s:111 s:110 3.528
R419 s:111 MN0@1:s 14
R420 s:110 s:54 3.192
R421 s:110 MN0@1:s 14
R422 s:109 s:108 3.528
R423 s:109 MN0@0:s 14
R424 s:108 s:52 3.192
R425 s:108 MN0@0:s 14
R426 s:145 s:144 3.528
R427 s:145 MN1@15:s 14
R428 s:144 s:88 3.192
R429 s:144 MN1@15:s 14
R430 s:143 s:142 3.528
R431 s:143 MN1@13:s 14
R432 s:142 s:86 3.192
R433 s:142 MN1@13:s 14
R434 s:141 s:140 3.528
R435 s:141 MN1@11:s 14
R436 s:140 s:84 3.192
R437 s:140 MN1@11:s 14
R438 s:139 s:138 3.528
R439 s:139 MN1@9:s 14
R440 s:138 s:82 3.192
R441 s:138 MN1@9:s 14
R442 s:137 s:136 3.528
R443 s:137 MN1@7:s 14
R444 s:136 s:80 3.192
R445 s:136 MN1@7:s 14
R446 s:135 s:134 3.528
R447 s:135 MN1@5:s 14
R448 s:134 s:78 3.192
R449 s:134 MN1@5:s 14
R450 s:133 s:132 3.528
R451 s:133 MN1@3:s 14
R452 s:132 s:76 3.192
R453 s:132 MN1@3:s 14
R454 s:131 s:130 3.528
R455 s:131 MN1@1:s 14
R456 s:130 s:74 3.192
R457 s:130 MN1@1:s 14
R458 s:129 s:128 3.528
R459 s:129 MN1@0:s 14
R460 s:128 s:72 3.192
R461 s:128 MN1@0:s 14
R462 MN0@1:s MN0@2:s 0.01
R463 MN0@3:s MN0@4:s 0.01
R464 MN0@5:s MN0@6:s 0.01
R465 MN0@7:s MN0@8:s 0.01
R466 MN0@9:s MN0@10:s 0.01
R467 MN0@11:s MN0@12:s 0.01
R468 MN0@13:s MN0@14:s 0.01
R469 MN0@15:s MN0@16:s 0.01
R470 MN0@17:s MN0@18:s 0.01
R471 MN1@1:s MN1@2:s 0.01
R472 MN1@3:s MN1@4:s 0.01
R473 MN1@5:s MN1@6:s 0.01
R474 MN1@7:s MN1@8:s 0.01
R475 MN1@9:s MN1@10:s 0.01
R476 MN1@11:s MN1@12:s 0.01
R477 MN1@13:s MN1@14:s 0.01
R478 MN1@15:s MN1@16:s 0.01
R479 MN1@17:s MN1@18:s 0.01
C55 s:51 0 1.6380000000000002e-14
C56 s:51 0 7.56e-15
C57 s:51 0 3.2760000000000004e-14
C58 s:21 0 1.6380000000000002e-14
C59 s:21 0 8.190000000000001e-15
C60 s:21 0 3.2760000000000004e-14
C61 s:23 0 1.6380000000000002e-14
C62 s:23 0 8.190000000000001e-15
C63 s:23 0 3.2760000000000004e-14
C64 s:25 0 1.6380000000000002e-14
C65 s:25 0 8.190000000000001e-15
C66 s:25 0 3.2760000000000004e-14
C67 s:27 0 1.6380000000000002e-14
C68 s:27 0 8.190000000000001e-15
C69 s:27 0 3.2760000000000004e-14
C70 s:29 0 1.6380000000000002e-14
C71 s:29 0 8.190000000000001e-15
C72 s:29 0 3.2760000000000004e-14
C73 s:31 0 1.6380000000000002e-14
C74 s:31 0 8.190000000000001e-15
C75 s:31 0 1.155e-14
C76 s:48 0 1.6380000000000002e-14
C77 s:48 0 7.56e-15
C78 s:48 0 1.6380000000000002e-14
C79 s:49 0 1.6380000000000002e-14
C80 s:49 0 7.56e-15
C81 s:49 0 4.83e-15
C82 s:33 0 1.6380000000000002e-14
C83 s:33 0 8.190000000000001e-15
C84 s:33 0 3.2760000000000004e-14
C85 s:35 0 1.6380000000000002e-14
C86 s:35 0 8.190000000000001e-15
C87 s:35 0 3.2760000000000004e-14
C88 s:37 0 1.6380000000000002e-14
C89 s:37 0 8.190000000000001e-15
C90 s:37 0 3.2760000000000004e-14
C91 s:39 0 1.6380000000000002e-14
C92 s:39 0 8.190000000000001e-15
C93 s:39 0 2.457e-14
C94 s:147 0 2.6460000000000002e-14
C95 s:146 0 2.394e-14
C96 s:38 0 2.5830000000000002e-14
C97 s:38 0 3.2760000000000004e-14
C98 s:38 0 2.457e-14
C99 s:36 0 2.5830000000000002e-14
C100 s:36 0 3.2760000000000004e-14
C101 s:34 0 2.5830000000000002e-14
C102 s:34 0 3.2760000000000004e-14
C103 s:32 0 2.5830000000000002e-14
C104 s:32 0 4.83e-15
C105 s:43 0 7.56e-15
C106 s:43 0 1.6380000000000002e-14
C107 s:42 0 7.56e-15
C108 s:42 0 1.155e-14
C109 s:30 0 2.5830000000000002e-14
C110 s:30 0 3.2760000000000004e-14
C111 s:28 0 2.5830000000000002e-14
C112 s:28 0 3.2760000000000004e-14
C113 s:26 0 2.5830000000000002e-14
C114 s:26 0 3.2760000000000004e-14
C115 s:24 0 2.5830000000000002e-14
C116 s:24 0 3.2760000000000004e-14
C117 s:22 0 2.5830000000000002e-14
C118 s:22 0 3.2760000000000004e-14
C119 s:20 0 2.5830000000000002e-14
C120 s:20 0 3.2760000000000004e-14
C121 s:45 0 7.56e-15
C122 s:45 0 1.6380000000000002e-14
C123 s:44 0 7.56e-15
C124 s:44 0 1.6380000000000002e-14
C125 s:44 0 4.914e-14
C126 s:18 0 2.5830000000000002e-14
C127 s:18 0 1.6380000000000002e-14
C128 s:18 0 3.2760000000000004e-14
C129 s:16 0 2.5830000000000002e-14
C130 s:16 0 1.6380000000000002e-14
C131 s:16 0 3.2760000000000004e-14
C132 s:14 0 2.5830000000000002e-14
C133 s:14 0 1.6380000000000002e-14
C134 s:14 0 3.2760000000000004e-14
C135 s:12 0 2.5830000000000002e-14
C136 s:12 0 1.6380000000000002e-14
C137 s:12 0 4.83e-15
C138 s:41 0 7.56e-15
C139 s:41 0 1.6380000000000002e-14
C140 s:41 0 1.6380000000000002e-14
C141 s:40 0 7.56e-15
C142 s:40 0 1.6380000000000002e-14
C143 s:40 0 1.155e-14
C144 s:10 0 2.5830000000000002e-14
C145 s:10 0 1.6380000000000002e-14
C146 s:10 0 3.2760000000000004e-14
C147 s:8 0 2.5830000000000002e-14
C148 s:8 0 1.6380000000000002e-14
C149 s:8 0 3.2760000000000004e-14
C150 s:6 0 2.5830000000000002e-14
C151 s:6 0 1.6380000000000002e-14
C152 s:6 0 3.2760000000000004e-14
C153 s:4 0 2.5830000000000002e-14
C154 s:4 0 1.6380000000000002e-14
C155 s:4 0 3.2760000000000004e-14
C156 s:2 0 2.5830000000000002e-14
C157 s:2 0 1.6380000000000002e-14
C158 s:2 0 3.2760000000000004e-14
C159 s:0 0 2.5830000000000002e-14
C160 s:0 0 1.6380000000000002e-14
C161 s:0 0 8.190000000000001e-15
C162 s:1 0 8.190000000000001e-15
C163 s:1 0 8.190000000000001e-15
C164 s:1 0 3.2760000000000004e-14
C165 s:3 0 8.190000000000001e-15
C166 s:3 0 3.2760000000000004e-14
C167 s:5 0 8.190000000000001e-15
C168 s:5 0 3.2760000000000004e-14
C169 s:7 0 8.190000000000001e-15
C170 s:7 0 3.2760000000000004e-14
C171 s:9 0 8.190000000000001e-15
C172 s:9 0 3.2760000000000004e-14
C173 s:11 0 8.190000000000001e-15
C174 s:11 0 1.155e-14
C175 s:46 0 7.56e-15
C176 s:46 0 1.6380000000000002e-14
C177 s:47 0 7.56e-15
C178 s:47 0 4.83e-15
C179 s:13 0 8.190000000000001e-15
C180 s:13 0 3.2760000000000004e-14
C181 s:15 0 8.190000000000001e-15
C182 s:15 0 3.2760000000000004e-14
C183 s:17 0 8.190000000000001e-15
C184 s:17 0 3.2760000000000004e-14
C185 s:19 0 8.190000000000001e-15
C186 s:19 0 4.914e-14
C187 s:50 0 7.56e-15
C188 s:127 0 2.6460000000000002e-14
C189 s:126 0 2.394e-14
C190 s:125 0 2.6460000000000002e-14
C191 s:124 0 2.394e-14
C192 s:123 0 2.6460000000000002e-14
C193 s:122 0 2.394e-14
C194 s:121 0 2.6460000000000002e-14
C195 s:120 0 2.394e-14
C196 s:119 0 2.6460000000000002e-14
C197 s:118 0 2.394e-14
C198 s:117 0 2.6460000000000002e-14
C199 s:116 0 2.394e-14
C200 s:115 0 2.6460000000000002e-14
C201 s:114 0 2.394e-14
C202 s:113 0 2.6460000000000002e-14
C203 s:112 0 2.394e-14
C204 s:111 0 2.6460000000000002e-14
C205 s:110 0 2.394e-14
C206 s:109 0 2.6460000000000002e-14
C207 s:108 0 2.394e-14
C208 s:145 0 2.6460000000000002e-14
C209 s:144 0 2.394e-14
C210 s:143 0 2.6460000000000002e-14
C211 s:142 0 2.394e-14
C212 s:141 0 2.6460000000000002e-14
C213 s:140 0 2.394e-14
C214 s:139 0 2.6460000000000002e-14
C215 s:138 0 2.394e-14
C216 s:137 0 2.6460000000000002e-14
C217 s:136 0 2.394e-14
C218 s:135 0 2.6460000000000002e-14
C219 s:134 0 2.394e-14
C220 s:133 0 2.6460000000000002e-14
C221 s:132 0 2.394e-14
C222 s:131 0 2.6460000000000002e-14
C223 s:130 0 2.394e-14
C224 s:129 0 2.6460000000000002e-14
C225 s:128 0 2.394e-14


* Net:d0 ----------------


R480 d0 d0:13 2.184
R481 d0 d0:15 2.184
R482 d0:15 d0:14 2.184
R483 d0:15 MN0@10:d 14
R484 d0:15 d0:38 3.444
R485 d0:15 MN0@10:d 14
R486 d0:15 d0:20 4.368
R487 d0:15 MN0@10:d 14
R488 d0:20 d0:16 2.184
R489 d0:20 MN0@12:d 14
R490 d0:20 d0:42 3.444
R491 d0:20 MN0@12:d 14
R492 d0:20 d0:21 4.368
R493 d0:20 MN0@12:d 14
R494 d0:21 d0:17 2.184
R495 d0:21 MN0@14:d 14
R496 d0:21 d0:46 3.444
R497 d0:21 MN0@14:d 14
R498 d0:21 d0:3 4.368
R499 d0:21 MN0@14:d 14
R500 d0:3 d0:2 2.184
R501 d0:3 MN0@16:d 14
R502 d0:3 d0:26 3.444
R503 d0:3 MN0@16:d 14
R504 d0:3 d0:23 4.368
R505 d0:3 MN0@16:d 14
R506 d0:23 d0:19 2.184
R507 d0:23 MN0@18:d 14
R508 d0:23 d0:50 3.444
R509 d0:23 MN0@18:d 14
R510 d0:23 d0:45 1.008
R511 d0:23 MN0@18:d 14
R512 d0:19 d0:70 1.092
R513 d0:19 MN0@18:d 14
R514 d0:19 d0:2 4.368
R515 d0:19 MN0@18:d 14
R516 d0:19 d0:41 1.008
R517 d0:19 MN0@18:d 14
R518 d0:2 d0:68 1.092
R519 d0:2 MN0@16:d 14
R520 d0:2 d0:17 4.368
R521 d0:2 MN0@16:d 14
R522 d0:17 d0:66 1.092
R523 d0:17 MN0@14:d 14
R524 d0:17 d0:16 4.368
R525 d0:17 MN0@14:d 14
R526 d0:16 d0:64 1.092
R527 d0:16 MN0@12:d 14
R528 d0:16 d0:14 4.368
R529 d0:16 MN0@12:d 14
R530 d0:14 d0:62 1.092
R531 d0:14 MN0@10:d 14
R532 d0:14 d0:12 4.368
R533 d0:14 MN0@10:d 14
R534 d0:12 d0:60 1.092
R535 d0:12 MN0@8:d 14
R536 d0:12 d0:13 2.184
R537 d0:12 MN0@8:d 14
R538 d0:12 d0:18 0.644
R539 d0:12 MN0@8:d 14
R540 d0:18 d0:49 1.008
R541 d0:18 d0:22 2.184
R542 d0:18 d0:0 2.184
R543 d0:0 d0:25 1.008
R544 d0:0 d0:1 2.184
R545 d0:0 d0:10 1.54
R546 d0:10 d0:58 1.092
R547 d0:10 MN0@6:d 14
R548 d0:10 d0:11 2.184
R549 d0:10 MN0@6:d 14
R550 d0:10 d0:8 4.368
R551 d0:10 MN0@6:d 14
R552 d0:8 d0:56 1.092
R553 d0:8 MN0@4:d 14
R554 d0:8 d0:9 2.184
R555 d0:8 MN0@4:d 14
R556 d0:8 d0:6 4.368
R557 d0:8 MN0@4:d 14
R558 d0:6 d0:54 1.092
R559 d0:6 MN0@2:d 14
R560 d0:6 d0:7 2.184
R561 d0:6 MN0@2:d 14
R562 d0:6 d0:4 4.368
R563 d0:6 MN0@2:d 14
R564 d0:4 d0:52 1.092
R565 d0:4 MN0@0:d 14
R566 d0:4 d0:5 2.184
R567 d0:4 MN0@0:d 14
R568 d0:4 d0:40 1.008
R569 d0:4 MN0@0:d 14
R570 d0:5 d0:28 3.444
R571 d0:5 MN0@0:d 14
R572 d0:5 d0:44 1.008
R573 d0:5 MN0@0:d 14
R574 d0:5 d0:7 4.368
R575 d0:5 MN0@0:d 14
R576 d0:7 d0:30 3.444
R577 d0:7 MN0@2:d 14
R578 d0:7 d0:9 4.368
R579 d0:7 MN0@2:d 14
R580 d0:9 d0:32 3.444
R581 d0:9 MN0@4:d 14
R582 d0:9 d0:11 4.368
R583 d0:9 MN0@4:d 14
R584 d0:11 d0:34 3.444
R585 d0:11 MN0@6:d 14
R586 d0:11 d0:1 1.54
R587 d0:11 MN0@6:d 14
R588 d0:1 d0:24 1.008
R589 d0:1 d0:22 2.184
R590 d0:22 d0:48 1.008
R591 d0:22 d0:13 0.644
R592 d0:13 d0:36 3.444
R593 d0:13 MN0@8:d 14
R594 d0:52 d0:53 3.528
R595 d0:52 MN0@0:d 14
R596 d0:53 d0:29 3.192
R597 d0:53 MN0@0:d 14
R598 d0:54 d0:55 3.528
R599 d0:54 MN0@2:d 14
R600 d0:55 d0:31 3.192
R601 d0:55 MN0@2:d 14
R602 d0:56 d0:57 3.528
R603 d0:56 MN0@4:d 14
R604 d0:57 d0:33 3.192
R605 d0:57 MN0@4:d 14
R606 d0:58 d0:59 3.528
R607 d0:58 MN0@6:d 14
R608 d0:59 d0:35 3.192
R609 d0:59 MN0@6:d 14
R610 d0:60 d0:61 3.528
R611 d0:60 MN0@8:d 14
R612 d0:61 d0:37 3.192
R613 d0:61 MN0@8:d 14
R614 d0:62 d0:63 3.528
R615 d0:62 MN0@10:d 14
R616 d0:63 d0:39 3.192
R617 d0:63 MN0@10:d 14
R618 d0:64 d0:65 3.528
R619 d0:64 MN0@12:d 14
R620 d0:65 d0:43 3.192
R621 d0:65 MN0@12:d 14
R622 d0:66 d0:67 3.528
R623 d0:66 MN0@14:d 14
R624 d0:67 d0:47 3.192
R625 d0:67 MN0@14:d 14
R626 d0:68 d0:69 3.528
R627 d0:68 MN0@16:d 14
R628 d0:69 d0:27 3.192
R629 d0:69 MN0@16:d 14
R630 d0:70 d0:71 3.528
R631 d0:70 MN0@18:d 14
R632 d0:71 d0:51 3.192
R633 d0:71 MN0@18:d 14
R634 MN0@0:d MN0@1:d 0.01
R635 MN0@2:d MN0@3:d 0.01
R636 MN0@4:d MN0@5:d 0.01
R637 MN0@6:d MN0@7:d 0.01
R638 MN0@8:d MN0@9:d 0.01
R639 MN0@10:d MN0@11:d 0.01
R640 MN0@12:d MN0@13:d 0.01
R641 MN0@14:d MN0@15:d 0.01
R642 MN0@16:d MN0@17:d 0.01
C226 d0:15 0 1.6380000000000002e-14
C227 d0:15 0 2.5830000000000002e-14
C228 d0:15 0 3.2760000000000004e-14
C229 d0:20 0 1.6380000000000002e-14
C230 d0:20 0 2.5830000000000002e-14
C231 d0:20 0 3.2760000000000004e-14
C232 d0:21 0 1.6380000000000002e-14
C233 d0:21 0 2.5830000000000002e-14
C234 d0:21 0 3.2760000000000004e-14
C235 d0:3 0 1.6380000000000002e-14
C236 d0:3 0 2.5830000000000002e-14
C237 d0:3 0 3.2760000000000004e-14
C238 d0:23 0 1.6380000000000002e-14
C239 d0:23 0 2.5830000000000002e-14
C240 d0:23 0 7.56e-15
C241 d0:19 0 8.190000000000001e-15
C242 d0:19 0 3.2760000000000004e-14
C243 d0:19 0 7.56e-15
C244 d0:2 0 8.190000000000001e-15
C245 d0:2 0 3.2760000000000004e-14
C246 d0:17 0 8.190000000000001e-15
C247 d0:17 0 3.2760000000000004e-14
C248 d0:16 0 8.190000000000001e-15
C249 d0:16 0 3.2760000000000004e-14
C250 d0:14 0 8.190000000000001e-15
C251 d0:14 0 3.2760000000000004e-14
C252 d0:12 0 8.190000000000001e-15
C253 d0:12 0 1.6380000000000002e-14
C254 d0:12 0 4.83e-15
C255 d0:18 0 7.56e-15
C256 d0:18 0 1.6380000000000002e-14
C257 d0:18 0 1.6380000000000002e-14
C258 d0:0 0 7.56e-15
C259 d0:0 0 1.6380000000000002e-14
C260 d0:0 0 1.155e-14
C261 d0:10 0 8.190000000000001e-15
C262 d0:10 0 1.6380000000000002e-14
C263 d0:10 0 3.2760000000000004e-14
C264 d0:8 0 8.190000000000001e-15
C265 d0:8 0 1.6380000000000002e-14
C266 d0:8 0 3.2760000000000004e-14
C267 d0:6 0 8.190000000000001e-15
C268 d0:6 0 1.6380000000000002e-14
C269 d0:6 0 3.2760000000000004e-14
C270 d0:4 0 8.190000000000001e-15
C271 d0:4 0 1.6380000000000002e-14
C272 d0:4 0 7.56e-15
C273 d0:5 0 2.5830000000000002e-14
C274 d0:5 0 7.56e-15
C275 d0:5 0 3.2760000000000004e-14
C276 d0:7 0 2.5830000000000002e-14
C277 d0:7 0 3.2760000000000004e-14
C278 d0:9 0 2.5830000000000002e-14
C279 d0:9 0 3.2760000000000004e-14
C280 d0:11 0 2.5830000000000002e-14
C281 d0:11 0 1.155e-14
C282 d0:1 0 7.56e-15
C283 d0:1 0 1.6380000000000002e-14
C284 d0:22 0 7.56e-15
C285 d0:22 0 4.83e-15
C286 d0:13 0 2.5830000000000002e-14
C287 d0:52 0 2.6460000000000002e-14
C288 d0:53 0 2.394e-14
C289 d0:54 0 2.6460000000000002e-14
C290 d0:55 0 2.394e-14
C291 d0:56 0 2.6460000000000002e-14
C292 d0:57 0 2.394e-14
C293 d0:58 0 2.6460000000000002e-14
C294 d0:59 0 2.394e-14
C295 d0:60 0 2.6460000000000002e-14
C296 d0:61 0 2.394e-14
C297 d0:62 0 2.6460000000000002e-14
C298 d0:63 0 2.394e-14
C299 d0:64 0 2.6460000000000002e-14
C300 d0:65 0 2.394e-14
C301 d0:66 0 2.6460000000000002e-14
C302 d0:67 0 2.394e-14
C303 d0:68 0 2.6460000000000002e-14
C304 d0:69 0 2.394e-14
C305 d0:70 0 2.6460000000000002e-14
C306 d0:71 0 2.394e-14


* Net:g0 ----------------


R643 g0 g0:17 1.12
R644 g0 g0:16 1.12
R645 g0 g0:1 3.528
R646 g0 g0:8 0.448
R647 g0:8 g0:31 1.008
R648 g0:8 g0:30 1.008
R649 g0:8 g0:2 0.448
R650 g0:8 g0:3 3.08
R651 g0:3 g0:19 1.12
R652 g0:3 MN0@0:g 342
R653 g0:3 MN0@1:g 342
R654 g0:3 MN0@2:g 342
R655 g0:3 MN0@3:g 342
R656 g0:3 MN0@4:g 342
R657 g0:3 MN0@5:g 342
R658 g0:3 MN0@6:g 342
R659 g0:3 MN0@7:g 342
R660 g0:3 MN0@8:g 342
R661 g0:3 MN0@9:g 342
R662 g0:3 MN0@10:g 342
R663 g0:3 MN0@11:g 342
R664 g0:3 MN0@12:g 342
R665 g0:3 MN0@13:g 342
R666 g0:3 MN0@14:g 342
R667 g0:3 MN0@15:g 342
R668 g0:3 MN0@16:g 342
R669 g0:3 MN0@17:g 342
R670 g0:3 MN0@18:g 342
R671 g0:3 g0:18 1.12
R672 g0:3 MN0@0:g 342
R673 g0:3 MN0@1:g 342
R674 g0:3 MN0@2:g 342
R675 g0:3 MN0@3:g 342
R676 g0:3 MN0@4:g 342
R677 g0:3 MN0@5:g 342
R678 g0:3 MN0@6:g 342
R679 g0:3 MN0@7:g 342
R680 g0:3 MN0@8:g 342
R681 g0:3 MN0@9:g 342
R682 g0:3 MN0@10:g 342
R683 g0:3 MN0@11:g 342
R684 g0:3 MN0@12:g 342
R685 g0:3 MN0@13:g 342
R686 g0:3 MN0@14:g 342
R687 g0:3 MN0@15:g 342
R688 g0:3 MN0@16:g 342
R689 g0:3 MN0@17:g 342
R690 g0:3 MN0@18:g 342
R691 g0:3 g0:4 3.528
R692 g0:3 MN0@0:g 342
R693 g0:3 MN0@1:g 342
R694 g0:3 MN0@2:g 342
R695 g0:3 MN0@3:g 342
R696 g0:3 MN0@4:g 342
R697 g0:3 MN0@5:g 342
R698 g0:3 MN0@6:g 342
R699 g0:3 MN0@7:g 342
R700 g0:3 MN0@8:g 342
R701 g0:3 MN0@9:g 342
R702 g0:3 MN0@10:g 342
R703 g0:3 MN0@11:g 342
R704 g0:3 MN0@12:g 342
R705 g0:3 MN0@13:g 342
R706 g0:3 MN0@14:g 342
R707 g0:3 MN0@15:g 342
R708 g0:3 MN0@16:g 342
R709 g0:3 MN0@17:g 342
R710 g0:3 MN0@18:g 342
R711 g0:4 g0:21 1.12
R712 g0:4 MN0@0:g 342
R713 g0:4 MN0@1:g 342
R714 g0:4 MN0@2:g 342
R715 g0:4 MN0@3:g 342
R716 g0:4 MN0@4:g 342
R717 g0:4 MN0@5:g 342
R718 g0:4 MN0@6:g 342
R719 g0:4 MN0@7:g 342
R720 g0:4 MN0@8:g 342
R721 g0:4 MN0@9:g 342
R722 g0:4 MN0@10:g 342
R723 g0:4 MN0@11:g 342
R724 g0:4 MN0@12:g 342
R725 g0:4 MN0@13:g 342
R726 g0:4 MN0@14:g 342
R727 g0:4 MN0@15:g 342
R728 g0:4 MN0@16:g 342
R729 g0:4 MN0@17:g 342
R730 g0:4 MN0@18:g 342
R731 g0:4 g0:20 1.12
R732 g0:4 MN0@0:g 342
R733 g0:4 MN0@1:g 342
R734 g0:4 MN0@2:g 342
R735 g0:4 MN0@3:g 342
R736 g0:4 MN0@4:g 342
R737 g0:4 MN0@5:g 342
R738 g0:4 MN0@6:g 342
R739 g0:4 MN0@7:g 342
R740 g0:4 MN0@8:g 342
R741 g0:4 MN0@9:g 342
R742 g0:4 MN0@10:g 342
R743 g0:4 MN0@11:g 342
R744 g0:4 MN0@12:g 342
R745 g0:4 MN0@13:g 342
R746 g0:4 MN0@14:g 342
R747 g0:4 MN0@15:g 342
R748 g0:4 MN0@16:g 342
R749 g0:4 MN0@17:g 342
R750 g0:4 MN0@18:g 342
R751 g0:4 g0:5 3.528
R752 g0:4 MN0@0:g 342
R753 g0:4 MN0@1:g 342
R754 g0:4 MN0@2:g 342
R755 g0:4 MN0@3:g 342
R756 g0:4 MN0@4:g 342
R757 g0:4 MN0@5:g 342
R758 g0:4 MN0@6:g 342
R759 g0:4 MN0@7:g 342
R760 g0:4 MN0@8:g 342
R761 g0:4 MN0@9:g 342
R762 g0:4 MN0@10:g 342
R763 g0:4 MN0@11:g 342
R764 g0:4 MN0@12:g 342
R765 g0:4 MN0@13:g 342
R766 g0:4 MN0@14:g 342
R767 g0:4 MN0@15:g 342
R768 g0:4 MN0@16:g 342
R769 g0:4 MN0@17:g 342
R770 g0:4 MN0@18:g 342
R771 g0:5 g0:23 1.12
R772 g0:5 MN0@0:g 342
R773 g0:5 MN0@1:g 342
R774 g0:5 MN0@2:g 342
R775 g0:5 MN0@3:g 342
R776 g0:5 MN0@4:g 342
R777 g0:5 MN0@5:g 342
R778 g0:5 MN0@6:g 342
R779 g0:5 MN0@7:g 342
R780 g0:5 MN0@8:g 342
R781 g0:5 MN0@9:g 342
R782 g0:5 MN0@10:g 342
R783 g0:5 MN0@11:g 342
R784 g0:5 MN0@12:g 342
R785 g0:5 MN0@13:g 342
R786 g0:5 MN0@14:g 342
R787 g0:5 MN0@15:g 342
R788 g0:5 MN0@16:g 342
R789 g0:5 MN0@17:g 342
R790 g0:5 MN0@18:g 342
R791 g0:5 g0:22 1.12
R792 g0:5 MN0@0:g 342
R793 g0:5 MN0@1:g 342
R794 g0:5 MN0@2:g 342
R795 g0:5 MN0@3:g 342
R796 g0:5 MN0@4:g 342
R797 g0:5 MN0@5:g 342
R798 g0:5 MN0@6:g 342
R799 g0:5 MN0@7:g 342
R800 g0:5 MN0@8:g 342
R801 g0:5 MN0@9:g 342
R802 g0:5 MN0@10:g 342
R803 g0:5 MN0@11:g 342
R804 g0:5 MN0@12:g 342
R805 g0:5 MN0@13:g 342
R806 g0:5 MN0@14:g 342
R807 g0:5 MN0@15:g 342
R808 g0:5 MN0@16:g 342
R809 g0:5 MN0@17:g 342
R810 g0:5 MN0@18:g 342
R811 g0:5 g0:6 3.528
R812 g0:5 MN0@0:g 342
R813 g0:5 MN0@1:g 342
R814 g0:5 MN0@2:g 342
R815 g0:5 MN0@3:g 342
R816 g0:5 MN0@4:g 342
R817 g0:5 MN0@5:g 342
R818 g0:5 MN0@6:g 342
R819 g0:5 MN0@7:g 342
R820 g0:5 MN0@8:g 342
R821 g0:5 MN0@9:g 342
R822 g0:5 MN0@10:g 342
R823 g0:5 MN0@11:g 342
R824 g0:5 MN0@12:g 342
R825 g0:5 MN0@13:g 342
R826 g0:5 MN0@14:g 342
R827 g0:5 MN0@15:g 342
R828 g0:5 MN0@16:g 342
R829 g0:5 MN0@17:g 342
R830 g0:5 MN0@18:g 342
R831 g0:6 g0:25 1.12
R832 g0:6 MN0@0:g 342
R833 g0:6 MN0@1:g 342
R834 g0:6 MN0@2:g 342
R835 g0:6 MN0@3:g 342
R836 g0:6 MN0@4:g 342
R837 g0:6 MN0@5:g 342
R838 g0:6 MN0@6:g 342
R839 g0:6 MN0@7:g 342
R840 g0:6 MN0@8:g 342
R841 g0:6 MN0@9:g 342
R842 g0:6 MN0@10:g 342
R843 g0:6 MN0@11:g 342
R844 g0:6 MN0@12:g 342
R845 g0:6 MN0@13:g 342
R846 g0:6 MN0@14:g 342
R847 g0:6 MN0@15:g 342
R848 g0:6 MN0@16:g 342
R849 g0:6 MN0@17:g 342
R850 g0:6 MN0@18:g 342
R851 g0:6 g0:24 1.12
R852 g0:6 MN0@0:g 342
R853 g0:6 MN0@1:g 342
R854 g0:6 MN0@2:g 342
R855 g0:6 MN0@3:g 342
R856 g0:6 MN0@4:g 342
R857 g0:6 MN0@5:g 342
R858 g0:6 MN0@6:g 342
R859 g0:6 MN0@7:g 342
R860 g0:6 MN0@8:g 342
R861 g0:6 MN0@9:g 342
R862 g0:6 MN0@10:g 342
R863 g0:6 MN0@11:g 342
R864 g0:6 MN0@12:g 342
R865 g0:6 MN0@13:g 342
R866 g0:6 MN0@14:g 342
R867 g0:6 MN0@15:g 342
R868 g0:6 MN0@16:g 342
R869 g0:6 MN0@17:g 342
R870 g0:6 MN0@18:g 342
R871 g0:6 g0:7 3.528
R872 g0:6 MN0@0:g 342
R873 g0:6 MN0@1:g 342
R874 g0:6 MN0@2:g 342
R875 g0:6 MN0@3:g 342
R876 g0:6 MN0@4:g 342
R877 g0:6 MN0@5:g 342
R878 g0:6 MN0@6:g 342
R879 g0:6 MN0@7:g 342
R880 g0:6 MN0@8:g 342
R881 g0:6 MN0@9:g 342
R882 g0:6 MN0@10:g 342
R883 g0:6 MN0@11:g 342
R884 g0:6 MN0@12:g 342
R885 g0:6 MN0@13:g 342
R886 g0:6 MN0@14:g 342
R887 g0:6 MN0@15:g 342
R888 g0:6 MN0@16:g 342
R889 g0:6 MN0@17:g 342
R890 g0:6 MN0@18:g 342
R891 g0:7 g0:27 1.12
R892 g0:7 MN0@0:g 342
R893 g0:7 MN0@1:g 342
R894 g0:7 MN0@2:g 342
R895 g0:7 MN0@3:g 342
R896 g0:7 MN0@4:g 342
R897 g0:7 MN0@5:g 342
R898 g0:7 MN0@6:g 342