*|DSPF	1.5
*|DESIGN	nmos
*|DATE	"Wed Jun 19 2025"
*|VENDOR	"Mentor Graphics Corporation"
*|PROGRAM	"Calibre xACT"
*|VERSION	"v2020.4_34.17"
*|DIVIDER	|
*|DELIMITER	:
*|BUSBIT	[]
* Corner Name: 12lp_11M_3Mx_4Cx_2Kx_2Gx_LB_nominal_detailed_25
* Nominal Temperature: 25C
* Circuit Temperature: 25C
*

* Integrated TICER reduction is not enabled.
* SHORT DELAY THRESHOLD: 2e-14
* Fill Mode: NG
* PEX REDUCE CC ABSOLUTE : disabled
* PEX REDUCE CC RATIO : disabled
* Delta transform mode : 344834

.subckt nmos d0 d1 s

* Net:s ----------------


R1 s s:36 2.268
R2 s s:85 1.008
R3 s s:3 4.368
R4 s s:5 4.368
R5 s:5 s:38 2.268
R6 s:5 MN1@1:s 14
R7 s:5 s:91 1.092
R8 s:5 MN1@1:s 14
R9 s:5 s:4 4.368
R10 s:5 MN1@1:s 14
R11 s:5 s:6 4.368
R12 s:5 MN1@1:s 14
R13 s:6 s:40 2.268
R14 s:6 MN1@3:s 14
R15 s:6 s:92 1.092
R16 s:6 MN1@3:s 14
R17 s:6 s:7 4.368
R18 s:6 MN1@3:s 14
R19 s:7 s:42 2.268
R20 s:7 MN1@5:s 14
R21 s:7 s:93 1.092
R22 s:7 MN1@5:s 14
R23 s:7 s:8 4.368
R24 s:7 MN1@5:s 14
R25 s:8 s:44 2.268
R26 s:8 MN1@7:s 14
R27 s:8 s:94 1.092
R28 s:8 MN1@7:s 14
R29 s:8 s:80 1.092
R30 s:8 MN1@7:s 14
R31 s:94 s:43 3.36
R32 s:94 MN1@7:s 14
R33 s:93 s:41 3.36
R34 s:93 MN1@5:s 14
R35 s:92 s:39 3.36
R36 s:92 MN1@3:s 14
R37 s:4 s:36 2.268
R38 s:4 MN0@7:s 14
R39 s:4 s:85 1.008
R40 s:4 MN0@7:s 14
R41 s:4 s:3 4.368
R42 s:4 MN0@7:s 14
R43 s:3 s:34 2.268
R44 s:3 MN0@5:s 14
R45 s:3 s:90 1.092
R46 s:3 MN0@5:s 14
R47 s:3 s:2 4.368
R48 s:3 MN0@5:s 14
R49 s:2 s:32 2.268
R50 s:2 MN0@3:s 14
R51 s:2 s:89 1.092
R52 s:2 MN0@3:s 14
R53 s:2 s:1 4.368
R54 s:2 MN0@3:s 14
R55 s:1 s:30 2.268
R56 s:1 MN0@1:s 14
R57 s:1 s:88 1.092
R58 s:1 MN0@1:s 14
R59 s:1 s:0 4.368
R60 s:1 MN0@1:s 14
R61 s:0 s:28 2.268
R62 s:0 MN0@0:s 14
R63 s:0 s:87 1.092
R64 s:0 MN0@0:s 14
R65 s:0 s:79 1.092
R66 s:0 MN0@0:s 14
R67 s:87 s:27 3.36
R68 s:87 MN0@0:s 14
R69 s:88 s:29 3.36
R70 s:88 MN0@1:s 14
R71 s:89 s:31 3.36
R72 s:89 MN0@3:s 14
R73 s:90 s:33 3.36
R74 s:90 MN0@5:s 14
R75 s:85 s:35 3.444
R76 s:85 MN0@7:s 14
R77 s:36 s:69 9.408
R78 s:69 s:99 3.36
R79 s:99 s:21 1.092
R80 s:99 MN0@15:s 14
R81 s:21 s:70 2.268
R82 s:21 MN0@15:s 14
R83 s:21 s:20 4.368
R84 s:21 MN0@15:s 14
R85 s:21 s:22 4.368
R86 s:21 MN0@15:s 14
R87 s:22 s:72 2.268
R88 s:22 MN1@9:s 14
R89 s:22 s:100 1.092
R90 s:22 MN1@9:s 14
R91 s:22 s:23 4.368
R92 s:22 MN1@9:s 14
R93 s:23 s:74 2.268
R94 s:23 MN1@11:s 14
R95 s:23 s:101 1.092
R96 s:23 MN1@11:s 14
R97 s:23 s:24 4.368
R98 s:23 MN1@11:s 14
R99 s:24 s:76 2.268
R100 s:24 MN1@13:s 14
R101 s:24 s:102 1.092
R102 s:24 MN1@13:s 14
R103 s:24 s:25 4.368
R104 s:24 MN1@13:s 14
R105 s:25 s:78 2.268
R106 s:25 MN1@15:s 14
R107 s:25 s:103 1.092
R108 s:25 MN1@15:s 14
R109 s:25 s:82 1.092
R110 s:25 MN1@15:s 14
R111 s:103 s:77 3.36
R112 s:103 MN1@15:s 14
R113 s:102 s:75 3.36
R114 s:102 MN1@13:s 14
R115 s:101 s:73 3.36
R116 s:101 MN1@11:s 14
R117 s:100 s:71 3.36
R118 s:100 MN1@9:s 14
R119 s:20 s:68 2.268
R120 s:20 MN0@13:s 14
R121 s:20 s:98 1.092
R122 s:20 MN0@13:s 14
R123 s:20 s:19 4.368
R124 s:20 MN0@13:s 14
R125 s:19 s:66 2.268
R126 s:19 MN0@11:s 14
R127 s:19 s:97 1.092
R128 s:19 MN0@11:s 14
R129 s:19 s:18 4.368
R130 s:19 MN0@11:s 14
R131 s:18 s:64 2.268
R132 s:18 MN0@9:s 14
R133 s:18 s:96 1.092
R134 s:18 MN0@9:s 14
R135 s:18 s:17 4.368
R136 s:18 MN0@9:s 14
R137 s:17 s:62 2.268
R138 s:17 MN0@8:s 14
R139 s:17 s:95 1.092
R140 s:17 MN0@8:s 14
R141 s:17 s:81 1.092
R142 s:17 MN0@8:s 14
R143 s:95 s:61 3.36
R144 s:95 MN0@8:s 14
R145 s:96 s:63 3.36
R146 s:96 MN0@9:s 14
R147 s:97 s:65 3.36
R148 s:97 MN0@11:s 14
R149 s:98 s:67 3.36
R150 s:98 MN0@13:s 14
R151 s:70 s:26 9.352
R152 s:26 s:86 1.008
R153 s:26 s:12 1.764
R154 s:26 s:13 1.764
R155 s:13 s:54 1.12
R156 s:13 MN0@0:b 14
R157 s:13 s:53 1.12
R158 s:13 MN0@0:b 14
R159 s:13 s:14 3.528
R160 s:13 MN0@0:b 14
R161 s:14 s:56 1.12
R162 s:14 MN0@0:b 14
R163 s:14 s:55 1.12
R164 s:14 MN0@0:b 14
R165 s:14 s:15 3.528
R166 s:14 MN0@0:b 14
R167 s:15 s:58 1.12
R168 s:15 MN0@0:b 14
R169 s:15 s:57 1.12
R170 s:15 MN0@0:b 14
R171 s:15 s:16 3.528
R172 s:15 MN0@0:b 14
R173 s:16 s:60 1.12
R174 s:16 MN0@0:b 14
R175 s:16 s:59 1.12
R176 s:16 MN0@0:b 14
R177 s:16 s:84 5.572
R178 s:16 MN0@0:b 14
R179 s:12 s:52 1.12
R180 s:12 MN0@0:b 14
R181 s:12 s:51 1.12
R182 s:12 MN0@0:b 14
R183 s:12 s:11 3.528
R184 s:12 MN0@0:b 14
R185 s:11 s:50 1.12
R186 s:11 MN0@0:b 14
R187 s:11 s:49 1.12
R188 s:11 MN0@0:b 14
R189 s:11 s:10 3.528
R190 s:11 MN0@0:b 14
R191 s:10 s:48 1.12
R192 s:10 MN0@0:b 14
R193 s:10 s:47 1.12
R194 s:10 MN0@0:b 14
R195 s:10 s:9 3.528
R196 s:10 MN0@0:b 14
R197 s:9 s:46 1.12
R198 s:9 MN0@0:b 14
R199 s:9 s:45 1.12
R200 s:9 MN0@0:b 14
R201 s:9 s:83 5.572
R202 s:9 MN0@0:b 14
R203 s:91 s:37 3.36
R204 s:91 MN1@1:s 14
R205 MN0@1:s MN0@2:s 0.01
R206 MN0@3:s MN0@4:s 0.01
R207 MN0@5:s MN0@6:s 0.01
R208 MN0@7:s MN1@0:s 0.01
R209 MN1@1:s MN1@2:s 0.01
R210 MN1@3:s MN1@4:s 0.01
R211 MN1@5:s MN1@6:s 0.01
R212 MN0@0:b MN0@1:b 0.01
R213 MN0@1:b MN0@2:b 0.01
R214 MN0@2:b MN0@3:b 0.01
R215 MN0@3:b MN0@4:b 0.01
R216 MN0@4:b MN0@5:b 0.01
R217 MN0@5:b MN0@6:b 0.01
R218 MN0@6:b MN0@7:b 0.01
R219 MN0@7:b MN1@0:b 0.01
R220 MN1@0:b MN1@1:b 0.01
R221 MN1@1:b MN1@2:b 0.01
R222 MN1@2:b MN1@3:b 0.01
R223 MN1@3:b MN1@4:b 0.01
R224 MN1@4:b MN1@5:b 0.01
R225 MN1@5:b MN1@6:b 0.01
R226 MN1@6:b MN1@7:b 0.01
R227 MN1@7:b MN0@8:b 0.01
R228 MN0@8:b MN0@9:b 0.01
R229 MN0@9:b MN0@10:b 0.01
R230 MN0@10:b MN0@11:b 0.01
R231 MN0@11:b MN0@12:b 0.01
R232 MN0@12:b MN0@13:b 0.01
R233 MN0@13:b MN0@14:b 0.01
R234 MN0@14:b MN0@15:b 0.01
R235 MN0@15:b MN1@8:b 0.01
R236 MN1@8:b MN1@9:b 0.01
R237 MN1@9:b MN1@10:b 0.01
R238 MN1@10:b MN1@11:b 0.01
R239 MN1@11:b MN1@12:b 0.01
R240 MN1@12:b MN1@13:b 0.01
R241 MN1@13:b MN1@14:b 0.01
R242 MN1@14:b MN1@15:b 0.01
R243 MN0@9:s MN0@10:s 0.01
R244 MN0@11:s MN0@12:s 0.01
R245 MN0@13:s MN0@14:s 0.01
R246 MN0@15:s MN1@8:s 0.01
R247 MN1@9:s MN1@10:s 0.01
R248 MN1@11:s MN1@12:s 0.01
R249 MN1@13:s MN1@14:s 0.01
R250 MN1@15:s MN2@0:s 0.01
C1 s:5 0 1.701e-14
C2 s:5 0 8.190000000000001e-15
C3 s:5 0 3.2760000000000004e-14
C4 s:5 0 3.2760000000000004e-14
C5 s:6 0 1.701e-14
C6 s:6 0 8.190000000000001e-15
C7 s:6 0 3.2760000000000004e-14
C8 s:7 0 1.701e-14
C9 s:7 0 8.190000000000001e-15
C10 s:7 0 3.2760000000000004e-14
C11 s:8 0 1.701e-14
C12 s:8 0 8.190000000000001e-15
C13 s:8 0 8.190000000000001e-15
C14 s:94 0 2.5200000000000002e-14
C15 s:93 0 2.5200000000000002e-14
C16 s:92 0 2.5200000000000002e-14
C17 s:4 0 1.701e-14
C18 s:4 0 7.56e-15
C19 s:4 0 3.2760000000000004e-14
C20 s:3 0 1.701e-14
C21 s:3 0 8.190000000000001e-15
C22 s:3 0 3.2760000000000004e-14
C23 s:2 0 1.701e-14
C24 s:2 0 8.190000000000001e-15
C25 s:2 0 3.2760000000000004e-14
C26 s:1 0 1.701e-14
C27 s:1 0 8.190000000000001e-15
C28 s:1 0 3.2760000000000004e-14
C29 s:0 0 1.701e-14
C30 s:0 0 8.190000000000001e-15
C31 s:0 0 8.190000000000001e-15
C32 s:87 0 2.5200000000000002e-14
C33 s:88 0 2.5200000000000002e-14
C34 s:89 0 2.5200000000000002e-14
C35 s:90 0 2.5200000000000002e-14
C36 s:85 0 2.5830000000000002e-14
C37 s:36 0 7.056e-14
C38 s:69 0 2.5200000000000002e-14
C39 s:99 0 8.190000000000001e-15
C40 s:21 0 1.701e-14
C41 s:21 0 3.2760000000000004e-14
C42 s:21 0 3.2760000000000004e-14
C43 s:22 0 1.701e-14
C44 s:22 0 8.190000000000001e-15
C45 s:22 0 3.2760000000000004e-14
C46 s:23 0 1.701e-14
C47 s:23 0 8.190000000000001e-15
C48 s:23 0 3.2760000000000004e-14
C49 s:24 0 1.701e-14
C50 s:24 0 8.190000000000001e-15
C51 s:24 0 3.2760000000000004e-14
C52 s:25 0 1.701e-14
C53 s:25 0 8.190000000000001e-15
C54 s:25 0 8.190000000000001e-15
C55 s:103 0 2.5200000000000002e-14
C56 s:102 0 2.5200000000000002e-14
C57 s:101 0 2.5200000000000002e-14
C58 s:100 0 2.5200000000000002e-14
C59 s:20 0 1.701e-14
C60 s:20 0 8.190000000000001e-15
C61 s:20 0 3.2760000000000004e-14
C62 s:19 0 1.701e-14
C63 s:19 0 8.190000000000001e-15
C64 s:19 0 3.2760000000000004e-14
C65 s:18 0 1.701e-14
C66 s:18 0 8.190000000000001e-15
C67 s:18 0 3.2760000000000004e-14
C68 s:17 0 1.701e-14
C69 s:17 0 8.190000000000001e-15
C70 s:17 0 8.190000000000001e-15
C71 s:95 0 2.5200000000000002e-14
C72 s:96 0 2.5200000000000002e-14
C73 s:97 0 2.5200000000000002e-14
C74 s:98 0 2.5200000000000002e-14
C75 s:70 0 7.014e-14
C76 s:26 0 7.56e-15
C77 s:26 0 1.3230000000000001e-14
C78 s:26 0 1.3230000000000001e-14
C79 s:13 0 8.400000000000001e-15
C80 s:13 0 8.400000000000001e-15
C81 s:13 0 2.6460000000000002e-14
C82 s:14 0 8.400000000000001e-15
C83 s:14 0 8.400000000000001e-15
C84 s:14 0 2.6460000000000002e-14
C85 s:15 0 8.400000000000001e-15
C86 s:15 0 8.400000000000001e-15
C87 s:15 0 2.6460000000000002e-14
C88 s:16 0 8.400000000000001e-15
C89 s:16 0 8.400000000000001e-15
C90 s:16 0 4.1790000000000004e-14
C91 s:12 0 8.400000000000001e-15
C92 s:12 0 8.400000000000001e-15
C93 s:12 0 2.6460000000000002e-14
C94 s:11 0 8.400000000000001e-15
C95 s:11 0 8.400000000000001e-15
C96 s:11 0 2.6460000000000002e-14
C97 s:10 0 8.400000000000001e-15
C98 s:10 0 8.400000000000001e-15
C99 s:10 0 2.6460000000000002e-14
C100 s:9 0 8.400000000000001e-15
C101 s:9 0 8.400000000000001e-15
C102 s:9 0 4.1790000000000004e-14
C103 s:91 0 2.5200000000000002e-14


* Net:d0 ----------------


R251 d0 d0:26 7.112
R252 d0 d0:90 1.008
R253 d0 d0:1 2.184
R254 d0 d0:2 2.184
R255 d0:2 d0:94 1.092
R256 d0:2 MN0@4:d 14
R257 d0:2 d0:34 2.268
R258 d0:2 MN0@4:d 14
R259 d0:2 d0:28 2.184
R260 d0:2 MN0@4:d 14
R261 d0:2 d0:3 4.368
R262 d0:2 MN0@4:d 14
R263 d0:3 d0:95 1.092
R264 d0:3 MN0@6:d 14
R265 d0:3 d0:36 2.268
R266 d0:3 MN0@6:d 14
R267 d0:3 d0:87 1.008
R268 d0:3 MN0@6:d 14
R269 d0:95 d0:37 3.36
R270 d0:95 MN0@6:d 14
R271 d0:28 d0:26 7.112
R272 d0:28 d0:90 1.008
R273 d0:28 d0:1 2.184
R274 d0:1 d0:93 1.092
R275 d0:1 MN0@2:d 14
R276 d0:1 d0:32 2.268
R277 d0:1 MN0@2:d 14
R278 d0:1 d0:0 4.368
R279 d0:1 MN0@2:d 14
R280 d0:0 d0:92 1.092
R281 d0:0 MN0@0:d 14
R282 d0:0 d0:30 2.268
R283 d0:0 MN0@0:d 14
R284 d0:0 d0:86 1.008
R285 d0:0 MN0@0:d 14
R286 d0:92 d0:31 3.36
R287 d0:92 MN0@0:d 14
R288 d0:93 d0:33 3.36
R289 d0:93 MN0@2:d 14
R290 d0:26 d0:29 9.016
R291 d0:26 d0:5 1.848
R292 d0:26 d0:6 1.68
R293 d0:6 d0:43 1.12
R294 d0:6 MN0@0:g 342
R295 d0:6 MN0@1:g 342
R296 d0:6 MN0@2:g 342
R297 d0:6 MN0@3:g 342
R298 d0:6 MN0@4:g 342
R299 d0:6 MN0@5:g 342
R300 d0:6 MN0@6:g 342
R301 d0:6 MN0@7:g 342
R302 d0:6 MN1@0:g 342
R303 d0:6 MN1@1:g 342
R304 d0:6 MN1@2:g 342
R305 d0:6 MN1@3:g 342
R306 d0:6 MN1@4:g 342
R307 d0:6 MN1@5:g 342
R308 d0:6 MN1@6:g 342
R309 d0:6 MN1@7:g 342
R310 d0:6 MN0@8:g 342
R311 d0:6 MN0@9:g 342
R312 d0:6 MN0@10:g 342
R313 d0:6 MN0@11:g 342
R314 d0:6 MN0@12:g 342
R315 d0:6 MN0@13:g 342
R316 d0:6 MN0@14:g 342
R317 d0:6 MN0@15:g 342
R318 d0:6 MN1@8:g 342
R319 d0:6 MN1@9:g 342
R320 d0:6 MN1@10:g 342
R321 d0:6 MN1@11:g 342
R322 d0:6 MN1@12:g 342
R323 d0:6 MN1@13:g 342
R324 d0:6 MN1@14:g 342
R325 d0:6 MN1@15:g 342
R326 d0:6 d0:42 1.12
R327 d0:6 MN0@0:g 342
R328 d0:6 MN0@1:g 342
R329 d0:6 MN0@2:g 342
R330 d0:6 MN0@3:g 342
R331 d0:6 MN0@4:g 342
R332 d0:6 MN0@5:g 342
R333 d0:6 MN0@6:g 342
R334 d0:6 MN0@7:g 342
R335 d0:6 MN1@0:g 342
R336 d0:6 MN1@1:g 342
R337 d0:6 MN1@2:g 342
R338 d0:6 MN1@3:g 342
R339 d0:6 MN1@4:g 342
R340 d0:6 MN1@5:g 342
R341 d0:6 MN1@6:g 342
R342 d0:6 MN1@7:g 342
R343 d0:6 MN0@8:g 342
R344 d0:6 MN0@9:g 342
R345 d0:6 MN0@10:g 342
R346 d0:6 MN0@11:g 342
R347 d0:6 MN0@12:g 342
R348 d0:6 MN0@13:g 342
R349 d0:6 MN0@14:g 342
R350 d0:6 MN0@15:g 342
R351 d0:6 MN1@8:g 342
R352 d0:6 MN1@9:g 342
R353 d0:6 MN1@10:g 342
R354 d0:6 MN1@11:g 342
R355 d0:6 MN1@12:g 342
R356 d0:6 MN1@13:g 342
R357 d0:6 MN1@14:g 342
R358 d0:6 MN1@15:g 342
R359 d0:6 d0:7 3.528
R360 d0:6 MN0@0:g 342
R361 d0:6 MN0@1:g 342
R362 d0:6 MN0@2:g 342
R363 d0:6 MN0@3:g 342
R364 d0:6 MN0@4:g 342
R365 d0:6 MN0@5:g 342
R366 d0:6 MN0@6:g 342
R367 d0:6 MN0@7:g 342
R368 d0:6 MN1@0:g 342
R369 d0:6 MN1@1:g 342
R370 d0:6 MN1@2:g 342
R371 d0:6 MN1@3:g 342
R372 d0:6 MN1@4:g 342
R373 d0:6 MN1@5:g 342
R374 d0:6 MN1@6:g 342
R375 d0:6 MN1@7:g 342
R376 d0:6 MN0@8:g 342
R377 d0:6 MN0@9:g 342
R378 d0:6 MN0@10:g 342
R379 d0:6 MN0@11:g 342
R380 d0:6 MN0@12:g 342
R381 d0:6 MN0@13:g 342
R382 d0:6 MN0@14:g 342
R383 d0:6 MN0@15:g 342
R384 d0:6 MN1@8:g 342
R385 d0:6 MN1@9:g 342
R386 d0:6 MN1@10:g 342
R387 d0:6 MN1@11:g 342
R388 d0:6 MN1@12:g 342
R389 d0:6 MN1@13:g 342
R390 d0:6 MN1@14:g 342
R391 d0:6 MN1@15:g 342
R392 d0:7 d0:45 1.12
R393 d0:7 MN0@0:g 342
R394 d0:7 MN0@1:g 342
R395 d0:7 MN0@2:g 342
R396 d0:7 MN0@3:g 342
R397 d0:7 MN0@4:g 342
R398 d0:7 MN0@5:g 342
R399 d0:7 MN0@6:g 342
R400 d0:7 MN0@7:g 342
R401 d0:7 MN1@0:g 342
R402 d0:7 MN1@1:g 342
R403 d0:7 MN1@2:g 342
R404 d0:7 MN1@3:g 342
R405 d0:7 MN1@4:g 342
R406 d0:7 MN1@5:g 342
R407 d0:7 MN1@6:g 342
R408 d0:7 MN1@7:g 342
R409 d0:7 MN0@8:g 342
R410 d0:7 MN0@9:g 342
R411 d0:7 MN0@10:g 342
R412 d0:7 MN0@11:g 342
R413 d0:7 MN0@12:g 342
R414 d0:7 MN0@13:g 342
R415 d0:7 MN0@14:g 342
R416 d0:7 MN0@15:g 342
R417 d0:7 MN1@8:g 342
R418 d0:7 MN1@9:g 342
R419 d0:7 MN1@10:g 342
R420 d0:7 MN1@11:g 342
R421 d0:7 MN1@12:g 342
R422 d0:7 MN1@13:g 342
R423 d0:7 MN1@14:g 342
R424 d0:7 MN1@15:g 342
R425 d0:7 d0:44 1.12
R426 d0:7 MN0@0:g 342
R427 d0:7 MN0@1:g 342
R428 d0:7 MN0@2:g 342
R429 d0:7 MN0@3:g 342
R430 d0:7 MN0@4:g 342
R431 d0:7 MN0@5:g 342
R432 d0:7 MN0@6:g 342
R433 d0:7 MN0@7:g 342
R434 d0:7 MN1@0:g 342
R435 d0:7 MN1@1:g 342
R436 d0:7 MN1@2:g 342
R437 d0:7 MN1@3:g 342
R438 d0:7 MN1@4:g 342
R439 d0:7 MN1@5:g 342
R440 d0:7 MN1@6:g 342
R441 d0:7 MN1@7:g 342
R442 d0:7 MN0@8:g 342
R443 d0:7 MN0@9:g 342
R444 d0:7 MN0@10:g 342
R445 d0:7 MN0@11:g 342
R446 d0:7 MN0@12:g 342
R447 d0:7 MN0@13:g 342
R448 d0:7 MN0@14:g 342
R449 d0:7 MN0@15:g 342
R450 d0:7 MN1@8:g 342
R451 d0:7 MN1@9:g 342
R452 d0:7 MN1@10:g 342
R453 d0:7 MN1@11:g 342
R454 d0:7 MN1@12:g 342
R455 d0:7 MN1@13:g 342
R456 d0:7 MN1@14:g 342
R457 d0:7 MN1@15:g 342
R458 d0:7 d0:8 3.528
R459 d0:7 MN0@0:g 342
R460 d0:7 MN0@1:g 342
R461 d0:7 MN0@2:g 342
R462 d0:7 MN0@3:g 342
R463 d0:7 MN0@4:g 342
R464 d0:7 MN0@5:g 342
R465 d0:7 MN0@6:g 342
R466 d0:7 MN0@7:g 342
R467 d0:7 MN1@0:g 342
R468 d0:7 MN1@1:g 342
R469 d0:7 MN1@2:g 342
R470 d0:7 MN1@3:g 342
R471 d0:7 MN1@4:g 342
R472 d0:7 MN1@5:g 342
R473 d0:7 MN1@6:g 342
R474 d0:7 MN1@7:g 342
R475 d0:7 MN0@8:g 342
R476 d0:7 MN0@9:g 342
R477 d0:7 MN0@10:g 342
R478 d0:7 MN0@11:g 342
R479 d0:7 MN0@12:g 342
R480 d0:7 MN0@13:g 342
R481 d0:7 MN0@14:g 342
R482 d0:7 MN0@15:g 342
R483 d0:7 MN1@8:g 342
R484 d0:7 MN1@9:g 342
R485 d0:7 MN1@10:g 342
R486 d0:7 MN1@11:g 342
R487 d0:7 MN1@12:g 342
R488 d0:7 MN1@13:g 342
R489 d0:7 MN1@14:g 342
R490 d0:7 MN1@15:g 342
R491 d0:8 d0:47 1.12
R492 d0:8 MN0@0:g 342
R493 d0:8 MN0@1:g 342
R494 d0:8 MN0@2:g 342
R495 d0:8 MN0@3:g 342
R496 d0:8 MN0@4:g 342
R497 d0:8 MN0@5:g 342
R498 d0:8 MN0@6:g 342
R499 d0:8 MN0@7:g 342
R500 d0:8 MN1@0:g 342
R501 d0:8 MN1@1:g 342
R502 d0:8 MN1@2:g 342
R503 d0:8 MN1@3:g 342
R504 d0:8 MN1@4:g 342
R505 d0:8 MN1@5:g 342
R506 d0:8 MN1@6:g 342
R507 d0:8 MN1@7:g 342
R508 d0:8 MN0@8:g 342
R509 d0:8 MN0@9:g 342
R510 d0:8 MN0@10:g 342
R511 d0:8 MN0@11:g 342
R512 d0:8 MN0@12:g 342
R513 d0:8 MN0@13:g 342
R514 d0:8 MN0@14:g 342
R515 d0:8 MN0@15:g 342
R516 d0:8 MN1@8:g 342
R517 d0:8 MN1@9:g 342
R518 d0:8 MN1@10:g 342
R519 d0:8 MN1@11:g 342
R520 d0:8 MN1@12:g 342
R521 d0:8 MN1@13:g 342
R522 d0:8 MN1@14:g 342
R523 d0:8 MN1@15:g 342
R524 d0:8 d0:46 1.12
R525 d0:8 MN0@0:g 342
R526 d0:8 MN0@1:g 342
R527 d0:8 MN0@2:g 342
R528 d0:8 MN0@3:g 342
R529 d0:8 MN0@4:g 342
R530 d0:8 MN0@5:g 342
R531 d0:8 MN0@6:g 342
R532 d0:8 MN0@7:g 342
R533 d0:8 MN1@0:g 342
R534 d0:8 MN1@1:g 342
R535 d0:8 MN1@2:g 342
R536 d0:8 MN1@3:g 342
R537 d0:8 MN1@4:g 342
R538 d0:8 MN1@5:g 342
R539 d0:8 MN1@6:g 342
R540 d0:8 MN1@7:g 342
R541 d0:8 MN0@8:g 342
R542 d0:8 MN0@9:g 342
R543 d0:8 MN0@10:g 342
R544 d0:8 MN0@11:g 342
R545 d0:8 MN0@12:g 342
R546 d0:8 MN0@13:g 342
R547 d0:8 MN0@14:g 342
R548 d0:8 MN0@15:g 342
R549 d0:8 MN1@8:g 342
R550 d0:8 MN1@9:g 342
R551 d0:8 MN1@10:g 342
R552 d0:8 MN1@11:g 342
R553 d0:8 MN1@12:g 342
R554 d0:8 MN1@13:g 342
R555 d0:8 MN1@14:g 342
R556 d0:8 MN1@15:g 342
R557 d0:8 d0:9 3.528
R558 d0:8 MN0@0:g 342
R559 d0:8 MN0@1:g 342
R560 d0:8 MN0@2:g 342
R561 d0:8 MN0@3:g 342
R562 d0:8 MN0@4:g 342
R563 d0:8 MN0@5:g 342
R564 d0:8 MN0@6:g 342
R565 d0:8 MN0@7:g 342
R566 d0:8 MN1@0:g 342
R567 d0:8 MN1@1:g 342
R568 d0:8 MN1@2:g 342
R569 d0:8 MN1@3:g 342
R570 d0:8 MN1@4:g 342
R571 d0:8 MN1@5:g 342
R572 d0:8 MN1@6:g 342
R573 d0:8 MN1@7:g 342
R574 d0:8 MN0@8:g 342
R575 d0:8 MN0@9:g 342
R576 d0:8 MN0@10:g 342
R577 d0:8 MN0@11:g 342
R578 d0:8 MN0@12:g 342
R579 d0:8 MN0@13:g 342
R580 d0:8 MN0@14:g 342
R581 d0:8 MN0@15:g 342
R582 d0:8 MN1@8:g 342
R583 d0:8 MN1@9:g 342
R584 d0:8 MN1@10:g 342
R585 d0:8 MN1@11:g 342
R586 d0:8 MN1@12:g 342
R587 d0:8 MN1@13:g 342
R588 d0:8 MN1@14:g 342
R589 d0:8 MN1@15:g 342
R590 d0:9 d0:49 1.12
R591 d0:9 MN0@0:g 342
R592 d0:9 MN0@1:g 342
R593 d0:9 MN0@2:g 342
R594 d0:9 MN0@3:g 342
R595 d0:9 MN0@4:g 342
R596 d0:9 MN0@5:g 342
R597 d0:9 MN0@6:g 342
R598 d0:9 MN0@7:g 342
R599 d0:9 MN1@0:g 342
R600 d0:9 MN1@1:g 342
R601 d0:9 MN1@2:g 342
R602 d0:9 MN1@3:g 342
R603 d0:9 MN1@4:g 342
R604 d0:9 MN1@5:g 342
R605 d0:9 MN1@6:g 342
R606 d0:9 MN1@7:g 342
R607 d0:9 MN0@8:g 342
R608 d0:9 MN0@9:g 342
R609 d0:9 MN0@10:g 342
R610 d0:9 MN0@11:g 342
R611 d0:9 MN0@12:g 342
R612 d0:9 MN0@13:g 342
R613 d0:9 MN0@14:g 342
R614 d0:9 MN0@15:g 342
R615 d0:9 MN1@8:g 342
R616 d0:9 MN1@9:g 342
R617 d0:9 MN1@10:g 342
R618 d0:9 MN1@11:g 342
R619 d0:9 MN1@12:g 342
R620 d0:9 MN1@13:g 342
R621 d0:9 MN1@14:g 342
R622 d0:9 MN1@15:g 342
R623 d0:9 d0:48 1.12
R624 d0:9 MN0@0:g 342
R625 d0:9 MN0@1:g 342
R626 d0:9 MN0@2:g 342
R627 d0:9 MN0@3:g 342
R628 d0:9 MN0@4:g 342
R629 d0:9 MN0@5:g 342
R630 d0:9 MN0@6:g 342
R631 d0:9 MN0@7:g 342
R632 d0:9 MN1@0:g 342
R633 d0:9 MN1@1:g 342
R634 d0:9 MN1@2:g 342
R635 d0:9 MN1@3:g 342
R636 d0:9 MN1@4:g 342
R637 d0:9 MN1@5:g 342
R638 d0:9 MN1@6:g 342
R639 d0:9 MN1@7:g 342
R640 d0:9 MN0@8:g 342
R641 d0:9 MN0@9:g 342
R642 d0:9 MN0@10:g 342
R643 d0:9 MN0@11:g 342
R644 d0:9 MN0@12:g 342
R645 d0:9 MN0@13:g 342
R646 d0:9 MN0@14:g 342
R647 d0:9 MN0@15:g 342
R648 d0:9 MN1@8:g 342
R649 d0:9 MN1@9:g 342
R650 d0:9 MN1@10:g 342
R651 d0:9 MN1@11:g 342
R652 d0:9 MN1@12:g 342
R653 d0:9 MN1@13:g 342
R654 d0:9 MN1@14:g 342
R655 d0:9 MN1@15:g 342
R656 d0:9 d0:10 3.528
R657 d0:9 MN0@0:g 342
R658 d0:9 MN0@1:g 342
R659 d0:9 MN0@2:g 342
R660 d0:9 MN0@3:g 342
R661 d0:9 MN0@4:g 342
R662 d0:9 MN0@5:g 342
R663 d0:9 MN0@6:g 342
R664 d0:9 MN0@7:g 342
R665 d0:9 MN1@0:g 342
R666 d0:9 MN1@1:g 342
R667 d0:9 MN1@2:g 342
R668 d0:9 MN1@3:g 342
R669 d0:9 MN1@4:g 342
R670 d0:9 MN1@5:g 342
R671 d0:9 MN1@6:g 342
R672 d0:9 MN1@7:g 342
R673 d0:9 MN0@8:g 342
R674 d0:9 MN0@9:g 342
R675 d0:9 MN0@10:g 342
R676 d0:9 MN0@11:g 342
R677 d0:9 MN0@12:g 342
R678 d0:9 MN0@13:g 342
R679 d0:9 MN0@14:g 342
R680 d0:9 MN0@15:g 342
R681 d0:9 MN1@8:g 342
R682 d0:9 MN1@9:g 342
R683 d0:9 MN1@10:g 342
R684 d0:9 MN1@11:g 342
R685 d0:9 MN1@12:g 342
R686 d0:9 MN1@13:g 342
R687 d0:9 MN1@14:g 342
R688 d0:9 MN1@15:g 342
R689 d0:10 d0:51 1.12
R690 d0:10 MN0@0:g 342
R691 d0:10 MN0@1:g 342
R692 d0:10 MN0@2:g 342
R693 d0:10 MN0@3:g 342
R694 d0:10 MN0@4:g 342
R695 d0:10 MN0@5:g 342
R696 d0:10 MN0@6:g 342
R697 d0:10 MN0@7:g 342
R698 d0:10 MN1@0:g 342
R699 d0:10 MN1@1:g 342
R700 d0:10 MN1@2:g 342
R701 d0:10 MN1@3:g 342
R702 d0:10 MN1@4:g 342
R703 d0:10 MN1@5:g 342
R704 d0:10 MN1@6:g 342
R705 d0:10 MN1@7:g 342
R706 d0:10 MN0@8:g 342
R707 d0:10 MN0@9:g 342
R708 d0:10 MN0@10:g 342
R709 d0:10 MN0@11:g 342
R710 d0:10 MN0@12:g 342
R711 d0:10 MN0@13:g 342
R712 d0:10 MN0@14:g 342
R713 d0:10 MN0@15:g 342
R714 d0:10 MN1@8:g 342
R715 d0:10 MN1@9:g 342
R716 d0:10 MN1@10:g 342
R717 d0:10 MN1@11:g 342
R718 d0:10 MN1@12:g 342
R719 d0:10 MN1@13:g 342
R720 d0:10 MN1@14:g 342
R721 d0:10 MN1@15:g 342
R722 d0:10 d0:50 1.12
R723 d0:10 MN0@0:g 342
R724 d0:10 MN0@1:g 342
R725 d0:10 MN0@2:g 342
R726 d0:10 MN0@3:g 342
R727 d0:10 MN0@4:g 342
R728 d0:10 MN0@5:g 342
R729 d0:10 MN0@6:g 342
R730 d0:10 MN0@7:g 342
R731 d0:10 MN1@0:g 342
R732 d0:10 MN1@1:g 342
R733 d0:10 MN1@2:g 342
R734 d0:10 MN1@3:g 342
R735 d0:10 MN1@4:g 342
R736 d0:10 MN1@5:g 342
R737 d0:10 MN1@6:g 342
R738 d0:10 MN1@7:g 342
R739 d0:10 MN0@8:g 342
R740 d0:10 MN0@9:g 342
R741 d0:10 MN0@10:g 342
R742 d0:10 MN0@11:g 342
R743 d0:10 MN0@12:g 342
R744 d0:10 MN0@13:g 342
R745 d0:10 MN0@14:g 342
R746 d0:10 MN0@15:g 342
R747 d0:10 MN1@8:g 342
R748 d0:10 MN1@9:g 342
R749 d0:10 MN1@10:g 342
R750 d0:10 MN1@11:g 342
R751 d0:10 MN1@12:g 342
R752 d0:10 MN1@13:g 342
R753 d0:10 MN1@14:g 342
R754 d0:10 MN1@15:g 342
R755 d0:10 d0:11 3.528
R756 d0:10 MN0@0:g 342
R757 d0:10 MN0@1:g 342
R758 d0:10 MN0@2:g 342
R759 d0:10 MN0@3:g 342
R760 d0:10 MN0@4:g 342
R761 d0:10 MN0@5:g 342
R762 d0:10 MN0@6:g 342
R763 d0:10 MN0@7:g 342
R764 d0:10 MN1@0:g 342
R765 d0:10 MN1@1:g 342
R766 d0:10 MN1@2:g 342
R767 d0:10 MN1@3:g 342
R768 d0:10 MN1@4:g 342
R769 d0:10 MN1@5:g 342
R770 d0:10 MN1@6:g 342
R771 d0:10 MN1@7:g 342
R772 d0:10 MN0@8:g 342
R773 d0:10 MN0@9:g 342
R774 d0:10 MN0@10:g 342
R775 d0:10 MN0@11:g 342
R776 d0:10 MN0@12:g 342
R777 d0:10 MN0@13:g 342
R778 d0:10 MN0@14:g 342
R779 d0:10 MN0@15:g 342
R780 d0:10 MN1@8:g 342
R781 d0:10 MN1@9:g 342
R782 d0:10 MN1@10:g 342
R783 d0:10 MN1@11:g 342
R784 d0:10 MN1@12:g 342
R785 d0:10 MN1@13:g 342
R786 d0:10 MN1@14:g 342
R787 d0:10 MN1@15:g 342
R788 d0:11 d0:53 1.12
R789 d0:11 MN0@0:g 342
R790 d0:11 MN0@1:g 342
R791 d0:11 MN0@2:g 342
R792 d0:11 MN0@3:g 342
R793 d0:11 MN0@4:g 342
R794 d0:11 MN0@5:g 342
R795 d0:11 MN0@6:g 342
R796 d0:11 MN0@7:g 342
R797 d0:11 MN1@0:g 342
R798 d0:11 MN1@1:g 342
R799 d0:11 MN1@2:g 342
R800 d0:11 MN1@3:g 342
R801 d0:11 MN1@4:g 342
R802 d0:11 MN1@5:g 342
R803 d0:11 MN1@6:g 342
R804 d0:11 MN1@7:g 342
R805 d0:11 MN0@8:g 342
R806 d0:11 MN0@9:g 342
R807 d0:11 MN0@10:g 342
R808 d0:11 MN0@11:g 342
R809 d0:11 MN0@12:g 342
R810 d0:11 MN0@13:g 342
R811 d0:11 MN0@14:g 342
R812 d0:11 MN0@15:g 342
R813 d0:11 MN1@8:g 342
R814 d0:11 MN1@9:g 342
R815 d0:11 MN1@10:g 342
R816 d0:11 MN1@11:g 342
R817 d0:11 MN1@12:g 342
R818 d0:11 MN1@13:g 342
R819 d0:11 MN1@14:g 342
R820 d0:11 MN1@15:g 342
R821 d0:11 d0:52 1.12
R822 d0:11 MN0@0:g 342
R823 d0:11 MN0@1:g 342
R824 d0:11 MN0@2:g 342
R825 d0:11 MN0@3:g 342
R826 d0:11 MN0@4:g 342
R827 d0:11 MN0@5:g 342
R828 d0:11 MN0@6:g 342
R829 d0:11 MN0@7:g 342
R830 d0:11 MN1@0:g 342
R831 d0:11 MN1@1:g 342
R832 d0:11 MN1@2:g 342
R833 d0:11 MN1@3:g 342
R834 d0:11 MN1@4:g 342
R835 d0:11 MN1@5:g 342
R836 d0:11 MN1@6:g 342
R837 d0:11 MN1@7:g 342
R838 d0:11 MN0@8:g 342
R839 d0:11 MN0@9:g 342
R840 d0:11 MN0@10:g 342
R841 d0:11 MN0@11:g 342
R842 d0:11 MN0@12:g 342
R843 d0:11 MN0@13:g 342
R844 d0:11 MN0@14:g 342
R845 d0:11 MN0@15:g 342
R846 d0:11 MN1@8:g 342
R847 d0:11 MN1@9:g 342
R848 d0:11 MN1@10:g 342
R849 d0:11 MN1@11:g 342
R850 d0:11 MN1@12:g 342
R851 d0:11 MN1@13:g 342
R852 d0:11 MN1@14:g 342
R853 d0:11 MN1@15:g 342
R854 d0:11 d0:12 3.528
R855 d0:11 MN0@0:g 342
R856 d0:11 MN0@1:g 342
R857 d0:11 MN0@2:g 342
R858 d0:11 MN0@3:g 342
R859 d0:11 MN0@4:g 342
R860 d0:11 MN0@5:g 342
R861 d0:11 MN0@6:g 342
R862 d0:11 MN0@7:g 342
R863 d0:11 MN1@0:g 342
R864 d0:11 MN1@1:g 342
R865 d0:11 MN1@2:g 342
R866 d0:11 MN1@3:g 342
R867 d0:11 MN1@4:g 342
R868 d0:11 MN1@5:g 342
R869 d0:11 MN1@6:g 342
R870 d0:11 MN1@7:g 342
R871 d0:11 MN0@8:g 342
R872 d0:11 MN0@9:g 342
R873 d0:11 MN0@10:g 342
R874 d0:11 MN0@11:g 342
R875 d0:11 MN0@12:g 342
R876 d0:11 MN0@13:g 342
R877 d0:11 MN0@14:g 342
R878 d0:11 MN0@15:g 342
R879 d0:11 MN1@8:g 342
R880 d0:11 MN1@9:g 342
R881 d0:11 MN1@10:g 342
R882 d0:11 MN1@11:g 342
R883 d0:11 MN1@12:g 342
R884 d0:11 MN1@13:g 342
R885 d0:11 MN1@14:g 342
R886 d0:11 MN1@15:g 342
R887 d0:12 d0:55 1.12
R888 d0:12 MN0@0:g 342
R889 d0:12 MN0@1:g 342
R890 d0:12 MN0@2:g 342
R891 d0:12 MN0@3:g 342
R892 d0:12 MN0@4:g 342
R893 d0:12 MN0@5:g 342
R894 d0:12 MN0@6:g 342
R895 d0:12 MN0@7:g 342
R896 d0:12 MN1@0:g 342
R897 d0:12 MN1@1:g 342
R898 d0:12 MN1@2:g 342
R899 d0:12 MN1@3:g 342
R900 d0:12 MN1@4:g 342
R901 d0:12 MN1@5:g 342
R902 d0:12 MN1@6:g 342
R903 d0:12 MN1@7:g 342
R904 d0:12 MN0@8:g 342
R905 d0:12 MN0@9:g 342
R906 d0:12 MN0@10:g 342
R907 d0:12 MN0@11:g 342
R908 d0:12 MN0@12:g 342
R909 d0:12 MN0@13:g 342
R910 d0:12 MN0@14:g 342
R911 d0:12 MN0@15:g 342
R912 d0:12 MN1@8:g 342
R913 d0:12 MN1@9:g 342
R914 d0:12 MN1@10:g 342
R915 d0:12 MN1@11:g 342
R916 d0:12 MN1@12:g 342
R917 d0:12 MN1@13:g 342
R918 d0:12 MN1@14:g 342
R919 d0:12 MN1@15:g 342
R920 d0:12 d0:54 1.12
R921 d0:12 MN0@0:g 342
R922 d0:12 MN0@1:g 342
R923 d0:12 MN0@2:g 342
R924 d0:12 MN0@3:g 342
R925 d0:12 MN0@4:g 342
R926 d0:12 MN0@5:g 342
R927 d0:12 MN0@6:g 342
R928 d0:12 MN0@7:g 342
R929 d0:12 MN1@0:g 342
R930 d0:12 MN1@1:g 342
R931 d0:12 MN1@2:g 342
R932 d0:12 MN1@3:g 342
R933 d0:12 MN1@4:g 342
R934 d0:12 MN1@5:g 342
R935 d0:12 MN1@6:g 342
R936 d0:12 MN1@7:g 342
R937 d0:12 MN0@8:g 342
R938 d0:12 MN0@9:g 342
R939 d0:12 MN0@10:g 342
R940 d0:12 MN0@11:g 342
R941 d0:12 MN0@12:g 342
R942 d0:12 MN0@13:g 342
R943 d0:12 MN0@14:g 342
R944 d0:12 MN0@15:g 342
R945 d0:12 MN1@8:g 342
R946 d0:12 MN1@9:g 342
R947 d0:12 MN1@10:g 342
R948 d0:12 MN1@11:g 342
R949 d0:12 MN1@12:g 342
R950 d0:12 MN1@13:g 342
R951 d0:12 MN1@14:g 342
R952 d0:12 MN1@15:g 342
R953 d0:12 d0:83 3.808
R954 d0:12 MN0@0:g 342
R955 d0:12 MN0@1:g 342
R956 d0:12 MN0@2:g 342
R957 d0:12 MN0@3:g 342
R958 d0:12 MN0@4:g 342
R959 d0:12 MN0@5:g 342
R960 d0:12 MN0@6:g 342
R961 d0:12 MN0@7:g 342
R962 d0:12 MN1@0:g 342
R963 d0:12 MN1@1:g 342
R964 d0:12 MN1@2:g 342
R965 d0:12 MN1@3:g 342
R966 d0:12 MN1@4:g 342
R967 d0:12 MN1@5:g 342
R968 d0:12 MN1@6:g 342
R969 d0:12 MN1@7:g 342
R970 d0:12 MN0@8:g 342
R971 d0:12 MN0@9:g 342
R972 d0:12 MN0@10:g 342
R973 d0:12 MN0@11:g 342
R974 d0:12 MN0@12:g 342
R975 d0:12 MN0@13:g 342
R976 d0:12 MN0@14:g 342
R977 d0:12 MN0@15:g 342
R978 d0:12 MN1@8:g 342
R979 d0:12 MN1@9:g 342
R980 d0:12 MN1@10:g 342
R981 d0:12 MN1@11:g 342
R982 d0:12 MN1@12:g 342
R983 d0:12 MN1@13:g 342
R984 d0:12 MN1@14:g 342
R985 d0:12 MN1@15:g 342
R986 d0:5 d0:41 1.12
R987 d0:5 MN0@0:g 342
R988 d0:5 MN0@1:g 342
R989 d0:5 MN0@2:g 342
R990 d0:5 MN0@3:g 342
R991 d0:5 MN0@4:g 342
R992 d0:5 MN0@5:g 342
R993 d0:5 MN0@6:g 342
R994 d0:5 MN0@7:g 342
R995 d0:5 MN1@0:g 342
R996 d0:5 MN1@1:g 342
R997 d0:5 MN1@2:g 342
R998 d0:5 MN1@3:g 342
R999 d0:5 MN1@4:g 342
R1000 d0:5 MN1@5:g 342
R1001 d0:5 MN1@6:g 342
R1002 d0:5 MN1@7:g 342
R1003 d0:5 MN0@8:g 342
R1004 d0:5 MN0@9:g 342
R1005 d0:5 MN0@10:g 342
R1006 d0:5 MN0@11:g 342
R1007 d0:5 MN0@12:g 342
R1008 d0:5 MN0@13:g 342
R1009 d0:5 MN0@14:g 342
R1010 d0:5 MN0@15:g 342
R1011 d0:5 MN1@8:g 342
R1012 d0:5 MN1@9:g 342
R1013 d0:5 MN1@10:g 342
R1014 d0:5 MN1@11:g 342
R1015 d0:5 MN1@12:g 342
R1016 d0:5 MN1@13:g 342
R1017 d0:5 MN1@14:g 342
R1018 d0:5 MN1@15:g 342
R1019 d0:5 d0:40 1.12
R1020 d0:5 MN0@0:g 342
R1021 d0:5 MN0@1:g 342
R1022 d0:5 MN0@2:g 342
R1023 d0:5 MN0@3:g 342
R1024 d0:5 MN0@4:g 342
R1025 d0:5 MN0@5:g 342
R1026 d0:5 MN0@6:g 342
R1027 d0:5 MN0@7:g 342
R1028 d0:5 MN1@0:g 342
R1029 d0:5 MN1@1:g 342
R1030 d0:5 MN1@2:g 342
R1031 d0:5 MN1@3:g 342
R1032 d0:5 MN1@4:g 342
R1033 d0:5 MN1@5:g 342
R1034 d0:5 MN1@6:g 342
R1035 d0:5 MN1@7:g 342
R1036 d0:5 MN0@8:g 342
R1037 d0:5 MN0@9:g 342
R1038 d0:5 MN0@10:g 342
R1039 d0:5 MN0@11:g 342
R1040 d0:5 MN0@12:g 342
R1041 d0:5 MN0@13:g 342
R1042 d0:5 MN0@14:g 342
R1043 d0:5 MN0@15:g 342
R1044 d0:5 MN1@8:g 342
R1045 d0:5 MN1@9:g 342
R1046 d0:5 MN1@10:g 342
R1047 d0:5 MN1@11:g 342
R1048 d0:5 MN1@12:g 342
R1049 d0:5 MN1@13:g 342
R1050 d0:5 MN1@14:g 342
R1051 d0:5 MN1@15:g 342
R1052 d0:5 d0:4 3.528
R1053 d0:5 MN0@0:g 342
R1054 d0:5 MN0@1:g 342
R1055 d0:5 MN0@2:g 342
R1056 d0:5 MN0@3:g 342
R1057 d0:5 MN0@4:g 342
R1058 d0:5 MN0@5:g 342
R1059 d0:5 MN0@6:g 342
R1060 d0:5 MN0@7:g 342
R1061 d0:5 MN1@0:g 342
R1062 d0:5 MN1@1:g 342
R1063 d0:5 MN1@2:g 342
R1064 d0:5 MN1@3:g 342
R1065 d0:5 MN1@4:g 342
R1066 d0:5 MN1@5:g 342
R1067 d0:5 MN1@6:g 342
R1068 d0:5 MN1@7:g 342
R1069 d0:5 MN0@8:g 342
R1070 d0:5 MN0@9:g 342
R1071 d0:5 MN0@10:g 342
R1072 d0:5 MN0@11:g 342
R1073 d0:5 MN0@12:g 342
R1074 d0:5 MN0@13:g 342
R1075 d0:5 MN0@14:g 342
R1076 d0:5 MN0@15:g 342
R1077 d0:5 MN1@8:g 342
R1078 d0:5 MN1@9:g 342
R1079 d0:5 MN1@10:g 342
R1080 d0:5 MN1@11:g 342
R1081 d0:5 MN1@12:g 342
R1082 d0:5 MN1@13:g 342
R1083 d0:5 MN1@14:g 342
R1084 d0:5 MN1@15:g 342
R1085 d0:4 d0:39 1.12
R1086 d0:4 MN0@0:g 342
R1087 d0:4 MN0@1:g 342
R1088 d0:4 MN0@2:g 342
R1089 d0:4 MN0@3:g 342
R1090 d0:4 MN0@4:g 342
R1091 d0:4 MN0@5:g 342
R1092 d0:4 MN0@6:g 342
R1093 d0:4 MN0@7:g 342
R1094 d0:4 MN1@0:g 342
R1095 d0:4 MN1@1:g 342
R1096 d0:4 MN1@2:g 342
R1097 d0:4 MN1@3:g 342
R1098 d0:4 MN1@4:g 342
R1099 d0:4 MN1@5:g 342
R1100 d0:4 MN1@6:g 342
R1101 d0:4 MN1@7:g 342
R1102 d0:4 MN0@8:g 342
R1103 d0:4 MN0@9:g 342
R1104 d0:4 MN0@10:g 342
R1105 d0:4 MN0@11:g 342
R1106 d0:4 MN0@12:g 342
R1107 d0:4 MN0@13:g 342
R1108 d0:4 MN0@14:g 342
R1109 d0:4 MN0@15:g 342
R1110 d0:4 MN1@8:g 342
R1111 d0:4 MN1@9:g 342
R1112 d0:4 MN1@10:g 342
R1113 d0:4 MN1@11:g 342
R1114 d0:4 MN1@12:g 342
R1115 d0:4 MN1@13:g 342
R1116 d0:4 MN1@14:g 342
R1117 d0:4 MN1@15:g 342
R1118 d0:4 d0:38 1.12
R1119 d0:4 MN0@0:g 342
R1120 d0:4 MN0@1:g 342
R1121 d0:4 MN0@2:g 342
R1122 d0:4 MN0@3:g 342
R1123 d0:4 MN0@4:g 342
R1124 d0:4 MN0@5:g 342
R1125 d0:4 MN0@6:g 342
R1126 d0:4 MN0@7:g 342
R1127 d0:4 MN1@0:g 342
R1128 d0:4 MN1@1:g 342
R1129 d0:4 MN1@2:g 342
R1130 d0:4 MN1@3:g 342
R1131 d0:4 MN1@4:g 342
R1132 d0:4 MN1@5:g 342
R1133 d0:4 MN1@6:g 342
R1134 d0:4 MN1@7:g 342
R1135 d0:4 MN0@8:g 342
R1136 d0:4 MN0@9:g 342
R1137 d0:4 MN0@10:g 342
R1138 d0:4 MN0@11:g 342
R1139 d0:4 MN0@12:g 342
R1140 d0:4 MN0@13:g 342
R1141 d0:4 MN0@14:g 342
R1142 d0:4 MN0@15:g 342
R1143 d0:4 MN1@8:g 342
R1144 d0:4 MN1@9:g 342
R1145 d0:4 MN1@10:g 342
R1146 d0:4 MN1@11:g 342
R1147 d0:4 MN1@12:g 342
R1148 d0:4 MN1@13:g 342
R1149 d0:4 MN1@14:g 342
R1150 d0:4 MN1@15:g 342
R1151 d0:4 d0:82 3.808
R1152 d0:4 MN0@0:g 342
R1153 d0:4 MN0@1:g 342
R1154 d0:4 MN0@2:g 342
R1155 d0:4 MN0@3:g 342
R1156 d0:4 MN0@4:g 342
R1157 d0:4 MN0@5:g 342
R1158 d0:4 MN0@6:g 342
R1159 d0:4 MN0@7:g 342
R1160 d0:4 MN1@0:g 342
R1161 d0:4 MN1@1:g 342
R1162 d0:4 MN1@2:g 342
R1163 d0:4 MN1@3:g 342
R1164 d0:4 MN1@4:g 342
R1165 d0:4 MN1@5:g 342
R1166 d0:4 MN1@6:g 342
R1167 d0:4 MN1@7:g 342
R1168 d0:4 MN0@8:g 342
R1169 d0:4 MN0@9:g 342