*|DSPF	1.5
*|DESIGN	nmos_dp_5x38x1_111_0
*|DATE	"Wed Jun 19 2025"
*|VENDOR	"Mentor Graphics Corporation"
*|PROGRAM	"Calibre xACT"
*|VERSION	"v2020.4_34.17"
*|DIVIDER	|
*|DELIMITER	:
*|BUSBIT	[]
* Corner Name: 12lp_11M_3Mx_4Cx_2Kx_2Gx_LB_nominal_detailed_25
* Nominal Temperature: 25C
* Circuit Temperature: 25C
*

* Integrated TICER reduction is not enabled.
* SHORT DELAY THRESHOLD: 2e-14
* Fill Mode: NG
* PEX REDUCE CC ABSOLUTE : disabled
* PEX REDUCE CC RATIO : disabled
* Delta transform mode : 344834

.subckt nmos_dp_5x38x1_111_0 b d0 d1 g0 g1 s

* Net:b ----------------


R1 b b:82 1.12
R2 b b:81 1.12
R3 b b:19 3.528
R4 b b:21 3.528
R5 b:21 b:84 1.12
R6 b:21 MN0@0:b 14
R7 b:21 b:83 1.12
R8 b:21 MN0@0:b 14
R9 b:21 b:20 3.528
R10 b:21 MN0@0:b 14
R11 b:21 b:22 3.528
R12 b:21 MN0@0:b 14
R13 b:22 b:86 1.12
R14 b:22 MN0@0:b 14
R15 b:22 b:85 1.12
R16 b:22 MN0@0:b 14
R17 b:22 b:23 3.528
R18 b:22 MN0@0:b 14
R19 b:23 b:88 1.12
R20 b:23 MN0@0:b 14
R21 b:23 b:87 1.12
R22 b:23 MN0@0:b 14
R23 b:23 b:24 3.528
R24 b:23 MN0@0:b 14
R25 b:24 b:90 1.12
R26 b:24 MN0@0:b 14
R27 b:24 b:89 1.12
R28 b:24 MN0@0:b 14
R29 b:24 b:25 3.528
R30 b:24 MN0@0:b 14
R31 b:25 b:92 1.12
R32 b:25 MN0@0:b 14
R33 b:25 b:91 1.12
R34 b:25 MN0@0:b 14
R35 b:25 b:26 3.528
R36 b:25 MN0@0:b 14
R37 b:26 b:94 1.12
R38 b:26 MN0@0:b 14
R39 b:26 b:93 1.12
R40 b:26 MN0@0:b 14
R41 b:26 b:27 3.528
R42 b:26 MN0@0:b 14
R43 b:27 b:96 1.12
R44 b:27 MN0@0:b 14
R45 b:27 b:95 1.12
R46 b:27 MN0@0:b 14
R47 b:27 b:28 3.528
R48 b:27 MN0@0:b 14
R49 b:28 b:98 1.12
R50 b:28 MN0@0:b 14
R51 b:28 b:97 1.12
R52 b:28 MN0@0:b 14
R53 b:28 b:29 3.528
R54 b:28 MN0@0:b 14
R55 b:29 b:100 1.12
R56 b:29 MN0@0:b 14
R57 b:29 b:99 1.12
R58 b:29 MN0@0:b 14
R59 b:29 b:30 3.528
R60 b:29 MN0@0:b 14
R61 b:30 b:102 1.12
R62 b:30 MN0@0:b 14
R63 b:30 b:101 1.12
R64 b:30 MN0@0:b 14
R65 b:30 b:31 3.528
R66 b:30 MN0@0:b 14
R67 b:31 b:104 1.12
R68 b:31 MN0@0:b 14
R69 b:31 b:103 1.12
R70 b:31 MN0@0:b 14
R71 b:31 b:32 3.528
R72 b:31 MN0@0:b 14
R73 b:32 b:106 1.12
R74 b:32 MN0@0:b 14
R75 b:32 b:105 1.12
R76 b:32 MN0@0:b 14
R77 b:32 b:33 3.528
R78 b:32 MN0@0:b 14
R79 b:33 b:108 1.12
R80 b:33 MN0@0:b 14
R81 b:33 b:107 1.12
R82 b:33 MN0@0:b 14
R83 b:33 b:35 3.528
R84 b:33 MN0@0:b 14
R85 b:35 b:114 1.12
R86 b:35 MN0@0:b 14
R87 b:35 b:113 1.12
R88 b:35 MN0@0:b 14
R89 b:35 b:34 3.528
R90 b:35 MN0@0:b 14
R91 b:34 b:112 1.12
R92 b:34 MN0@0:b 14
R93 b:34 b:111 1.12
R94 b:34 MN0@0:b 14
R95 b:34 b:36 3.528
R96 b:34 MN0@0:b 14
R97 b:36 b:116 1.12
R98 b:36 MN0@0:b 14
R99 b:36 b:115 1.12
R100 b:36 MN0@0:b 14
R101 b:36 b:37 3.528
R102 b:36 MN0@0:b 14
R103 b:37 b:118 1.12
R104 b:37 MN0@0:b 14
R105 b:37 b:117 1.12
R106 b:37 MN0@0:b 14
R107 b:37 b:38 3.528
R108 b:37 MN0@0:b 14
R109 b:38 b:120 1.12
R110 b:38 MN0@0:b 14
R111 b:38 b:119 1.12
R112 b:38 MN0@0:b 14
R113 b:38 b:39 3.528
R114 b:38 MN0@0:b 14
R115 b:39 b:122 1.12
R116 b:39 MN0@0:b 14
R117 b:39 b:121 1.12
R118 b:39 MN0@0:b 14
R119 b:39 b:40 3.528
R120 b:39 MN0@0:b 14
R121 b:40 b:124 1.12
R122 b:40 MN0@0:b 14
R123 b:40 b:123 1.12
R124 b:40 MN0@0:b 14
R125 b:40 b:110 12.88
R126 b:40 MN0@0:b 14
R127 b:20 b:82 1.12
R128 b:20 MN0@0:b 14
R129 b:20 b:81 1.12
R130 b:20 MN0@0:b 14
R131 b:20 b:19 3.528
R132 b:20 MN0@0:b 14
R133 b:19 b:80 1.12
R134 b:19 MN0@0:b 14
R135 b:19 b:79 1.12
R136 b:19 MN0@0:b 14
R137 b:19 b:18 3.528
R138 b:19 MN0@0:b 14
R139 b:18 b:78 1.12
R140 b:18 MN0@0:b 14
R141 b:18 b:77 1.12
R142 b:18 MN0@0:b 14
R143 b:18 b:17 3.528
R144 b:18 MN0@0:b 14
R145 b:17 b:76 1.12
R146 b:17 MN0@0:b 14
R147 b:17 b:75 1.12
R148 b:17 MN0@0:b 14
R149 b:17 b:16 3.528
R150 b:17 MN0@0:b 14
R151 b:16 b:74 1.12
R152 b:16 MN0@0:b 14
R153 b:16 b:73 1.12
R154 b:16 MN0@0:b 14
R155 b:16 b:15 3.528
R156 b:16 MN0@0:b 14
R157 b:15 b:72 1.12
R158 b:15 MN0@0:b 14
R159 b:15 b:71 1.12
R160 b:15 MN0@0:b 14
R161 b:15 b:14 3.528
R162 b:15 MN0@0:b 14
R163 b:14 b:70 1.12
R164 b:14 MN0@0:b 14
R165 b:14 b:69 1.12
R166 b:14 MN0@0:b 14
R167 b:14 b:13 3.528
R168 b:14 MN0@0:b 14
R169 b:13 b:68 1.12
R170 b:13 MN0@0:b 14
R171 b:13 b:67 1.12
R172 b:13 MN0@0:b 14
R173 b:13 b:12 3.528
R174 b:13 MN0@0:b 14
R175 b:12 b:66 1.12
R176 b:12 MN0@0:b 14
R177 b:12 b:65 1.12
R178 b:12 MN0@0:b 14
R179 b:12 b:11 3.528
R180 b:12 MN0@0:b 14
R181 b:11 b:64 1.12
R182 b:11 MN0@0:b 14
R183 b:11 b:63 1.12
R184 b:11 MN0@0:b 14
R185 b:11 b:10 3.528
R186 b:11 MN0@0:b 14
R187 b:10 b:62 1.12
R188 b:10 MN0@0:b 14
R189 b:10 b:61 1.12
R190 b:10 MN0@0:b 14
R191 b:10 b:9 3.528
R192 b:10 MN0@0:b 14
R193 b:9 b:60 1.12
R194 b:9 MN0@0:b 14
R195 b:9 b:59 1.12
R196 b:9 MN0@0:b 14
R197 b:9 b:8 3.528
R198 b:9 MN0@0:b 14
R199 b:8 b:58 1.12
R200 b:8 MN0@0:b 14
R201 b:8 b:57 1.12
R202 b:8 MN0@0:b 14
R203 b:8 b:7 3.528
R204 b:8 MN0@0:b 14
R205 b:7 b:56 1.12
R206 b:7 MN0@0:b 14
R207 b:7 b:55 1.12
R208 b:7 MN0@0:b 14
R209 b:7 b:6 3.528
R210 b:7 MN0@0:b 14
R211 b:6 b:54 1.12
R212 b:6 MN0@0:b 14
R213 b:6 b:53 1.12
R214 b:6 MN0@0:b 14
R215 b:6 b:5 3.528
R216 b:6 MN0@0:b 14
R217 b:5 b:52 1.12
R218 b:5 MN0@0:b 14
R219 b:5 b:51 1.12
R220 b:5 MN0@0:b 14
R221 b:5 b:4 3.528
R222 b:5 MN0@0:b 14
R223 b:4 b:50 1.12
R224 b:4 MN0@0:b 14
R225 b:4 b:49 1.12
R226 b:4 MN0@0:b 14
R227 b:4 b:3 3.528
R228 b:4 MN0@0:b 14
R229 b:3 b:48 1.12
R230 b:3 MN0@0:b 14
R231 b:3 b:47 1.12
R232 b:3 MN0@0:b 14
R233 b:3 b:2 3.528
R234 b:3 MN0@0:b 14
R235 b:2 b:46 1.12
R236 b:2 MN0@0:b 14
R237 b:2 b:45 1.12
R238 b:2 MN0@0:b 14
R239 b:2 b:1 3.528
R240 b:2 MN0@0:b 14
R241 b:1 b:44 1.12
R242 b:1 MN0@0:b 14
R243 b:1 b:43 1.12
R244 b:1 MN0@0:b 14
R245 b:1 b:0 3.528
R246 b:1 MN0@0:b 14
R247 b:0 b:42 1.12
R248 b:0 MN0@0:b 14
R249 b:0 b:41 1.12
R250 b:0 MN0@0:b 14
R251 b:0 b:109 12.88
R252 b:0 MN0@0:b 14
R253 MN0@0:b MN0@1:b 0.01
R254 MN0@1:b MN0@2:b 0.01
R255 MN0@2:b MN0@3:b 0.01
R256 MN0@3:b MN0@4:b 0.01
R257 MN0@4:b MN0@5:b 0.01
R258 MN0@5:b MN0@6:b 0.01
R259 MN0@6:b MN0@7:b 0.01
R260 MN0@7:b MN0@8:b 0.01
R261 MN0@8:b MN0@9:b 0.01
R262 MN0@9:b MN0@10:b 0.01
R263 MN0@10:b MN0@11:b 0.01
R264 MN0@11:b MN0@12:b 0.01
R265 MN0@12:b MN0@13:b 0.01
R266 MN0@13:b MN0@14:b 0.01
R267 MN0@14:b MN0@15:b 0.01
R268 MN0@15:b MN0@16:b 0.01
R269 MN0@16:b MN0@17:b 0.01
R270 MN0@17:b MN0@18:b 0.01
R271 MN0@18:b MN0@19:b 0.01
R272 MN0@19:b MN0@20:b 0.01
R273 MN0@20:b MN0@21:b 0.01
R274 MN0@21:b MN0@22:b 0.01
R275 MN0@22:b MN0@23:b 0.01
R276 MN0@23:b MN0@24:b 0.01
R277 MN0@24:b MN0@25:b 0.01
R278 MN0@25:b MN0@26:b 0.01
R279 MN0@26:b MN0@27:b 0.01
R280 MN0@27:b MN0@28:b 0.01
R281 MN0@28:b MN0@29:b 0.01
R282 MN0@29:b MN0@30:b 0.01
R283 MN0@30:b MN0@31:b 0.01
R284 MN0@31:b MN0@32:b 0.01
R285 MN0@32:b MN0@33:b 0.01
R286 MN0@33:b MN0@34:b 0.01
R287 MN0@34:b MN0@35:b 0.01
R288 MN0@35:b MN0@36:b 0.01
R289 MN0@36:b MN0@37:b 0.01
R290 MN0@37:b MN1@0:b 0.01
R291 MN1@0:b MN1@1:b 0.01
R292 MN1@1:b MN1@2:b 0.01
R293 MN1@2:b MN1@3:b 0.01
R294 MN1@3:b MN1@4:b 0.01
R295 MN1@4:b MN1@5:b 0.01
R296 MN1@5:b MN1@6:b 0.01
R297 MN1@6:b MN1@7:b 0.01
R298 MN1@7:b MN1@8:b 0.01
R299 MN1@8:b MN1@9:b 0.01
R300 MN1@9:b MN1@10:b 0.01
R301 MN1@10:b MN1@11:b 0.01
R302 MN1@11:b MN1@12:b 0.01
R303 MN1@12:b MN1@13:b 0.01
R304 MN1@13:b MN1@14:b 0.01
R305 MN1@14:b MN1@15:b 0.01
R306 MN1@15:b MN1@16:b 0.01
R307 MN1@16:b MN1@17:b 0.01
R308 MN1@17:b MN1@18:b 0.01
R309 MN1@18:b MN1@19:b 0.01
R310 MN1@19:b MN1@20:b 0.01
R311 MN1@20:b MN1@21:b 0.01
R312 MN1@21:b MN1@22:b 0.01
R313 MN1@22:b MN1@23:b 0.01
R314 MN1@23:b MN1@24:b 0.01
R315 MN1@24:b MN1@25:b 0.01
R316 MN1@25:b MN1@26:b 0.01
R317 MN1@26:b MN1@27:b 0.01
R318 MN1@27:b MN1@28:b 0.01
R319 MN1@28:b MN1@29:b 0.01
R320 MN1@29:b MN1@30:b 0.01
R321 MN1@30:b MN1@31:b 0.01
R322 MN1@31:b MN1@32:b 0.01
R323 MN1@32:b MN1@33:b 0.01
R324 MN1@33:b MN1@34:b 0.01
R325 MN1@34:b MN1@35:b 0.01
R326 MN1@35:b MN1@36:b 0.01
R327 MN1@36:b MN1@37:b 0.01
C1 b:21 0 8.400000000000001e-15
C2 b:21 0 8.400000000000001e-15
C3 b:21 0 2.6460000000000002e-14
C4 b:21 0 2.6460000000000002e-14
C5 b:22 0 8.400000000000001e-15
C6 b:22 0 8.400000000000001e-15
C7 b:22 0 2.6460000000000002e-14
C8 b:23 0 8.400000000000001e-15
C9 b:23 0 8.400000000000001e-15
C10 b:23 0 2.6460000000000002e-14
C11 b:24 0 8.400000000000001e-15
C12 b:24 0 8.400000000000001e-15
C13 b:24 0 2.6460000000000002e-14
C14 b:25 0 8.400000000000001e-15
C15 b:25 0 8.400000000000001e-15
C16 b:25 0 2.6460000000000002e-14
C17 b:26 0 8.400000000000001e-15
C18 b:26 0 8.400000000000001e-15
C19 b:26 0 2.6460000000000002e-14
C20 b:27 0 8.400000000000001e-15
C21 b:27 0 8.400000000000001e-15
C22 b:27 0 2.6460000000000002e-14
C23 b:28 0 8.400000000000001e-15
C24 b:28 0 8.400000000000001e-15
C25 b:28 0 2.6460000000000002e-14
C26 b:29 0 8.400000000000001e-15
C27 b:29 0 8.400000000000001e-15
C28 b:29 0 2.6460000000000002e-14
C29 b:30 0 8.400000000000001e-15
C30 b:30 0 8.400000000000001e-15
C31 b:30 0 2.6460000000000002e-14
C32 b:31 0 8.400000000000001e-15
C33 b:31 0 8.400000000000001e-15
C34 b:31 0 2.6460000000000002e-14
C35 b:32 0 8.400000000000001e-15
C36 b:32 0 8.400000000000001e-15
C37 b:32 0 2.6460000000000002e-14
C38 b:33 0 8.400000000000001e-15
C39 b:33 0 8.400000000000001e-15
C40 b:33 0 2.6460000000000002e-14
C41 b:35 0 8.400000000000001e-15
C42 b:35 0 8.400000000000001e-15
C43 b:35 0 2.6460000000000002e-14
C44 b:34 0 8.400000000000001e-15
C45 b:34 0 8.400000000000001e-15
C46 b:34 0 2.6460000000000002e-14
C47 b:36 0 8.400000000000001e-15
C48 b:36 0 8.400000000000001e-15
C49 b:36 0 2.6460000000000002e-14
C50 b:37 0 8.400000000000001e-15
C51 b:37 0 8.400000000000001e-15
C52 b:37 0 2.6460000000000002e-14
C53 b:38 0 8.400000000000001e-15
C54 b:38 0 8.400000000000001e-15
C55 b:38 0 2.6460000000000002e-14
C56 b:39 0 8.400000000000001e-15
C57 b:39 0 8.400000000000001e-15
C58 b:39 0 2.6460000000000002e-14
C59 b:40 0 8.400000000000001e-15
C60 b:40 0 8.400000000000001e-15
C61 b:40 0 9.66e-14
C62 b:20 0 8.400000000000001e-15
C63 b:20 0 8.400000000000001e-15
C64 b:20 0 2.6460000000000002e-14
C65 b:19 0 8.400000000000001e-15
C66 b:19 0 8.400000000000001e-15
C67 b:19 0 2.6460000000000002e-14
C68 b:18 0 8.400000000000001e-15
C69 b:18 0 8.400000000000001e-15
C70 b:18 0 2.6460000000000002e-14
C71 b:17 0 8.400000000000001e-15
C72 b:17 0 8.400000000000001e-15
C73 b:17 0 2.6460000000000002e-14
C74 b:16 0 8.400000000000001e-15
C75 b:16 0 8.400000000000001e-15
C76 b:16 0 2.6460000000000002e-14
C77 b:15 0 8.400000000000001e-15
C78 b:15 0 8.400000000000001e-15
C79 b:15 0 2.6460000000000002e-14
C80 b:14 0 8.400000000000001e-15
C81 b:14 0 8.400000000000001e-15
C82 b:14 0 2.6460000000000002e-14
C83 b:13 0 8.400000000000001e-15
C84 b:13 0 8.400000000000001e-15
C85 b:13 0 2.6460000000000002e-14
C86 b:12 0 8.400000000000001e-15
C87 b:12 0 8.400000000000001e-15
C88 b:12 0 2.6460000000000002e-14
C89 b:11 0 8.400000000000001e-15
C90 b:11 0 8.400000000000001e-15
C91 b:11 0 2.6460000000000002e-14
C92 b:10 0 8.400000000000001e-15
C93 b:10 0 8.400000000000001e-15
C94 b:10 0 2.6460000000000002e-14
C95 b:9 0 8.400000000000001e-15
C96 b:9 0 8.400000000000001e-15
C97 b:9 0 2.6460000000000002e-14
C98 b:8 0 8.400000000000001e-15
C99 b:8 0 8.400000000000001e-15
C100 b:8 0 2.6460000000000002e-14
C101 b:7 0 8.400000000000001e-15
C102 b:7 0 8.400000000000001e-15
C103 b:7 0 2.6460000000000002e-14
C104 b:6 0 8.400000000000001e-15
C105 b:6 0 8.400000000000001e-15
C106 b:6 0 2.6460000000000002e-14
C107 b:5 0 8.400000000000001e-15
C108 b:5 0 8.400000000000001e-15
C109 b:5 0 2.6460000000000002e-14
C110 b:4 0 8.400000000000001e-15
C111 b:4 0 8.400000000000001e-15
C112 b:4 0 2.6460000000000002e-14
C113 b:3 0 8.400000000000001e-15
C114 b:3 0 8.400000000000001e-15
C115 b:3 0 2.6460000000000002e-14
C116 b:2 0 8.400000000000001e-15
C117 b:2 0 8.400000000000001e-15
C118 b:2 0 2.6460000000000002e-14
C119 b:1 0 8.400000000000001e-15
C120 b:1 0 8.400000000000001e-15
C121 b:1 0 2.6460000000000002e-14
C122 b:0 0 8.400000000000001e-15
C123 b:0 0 8.400000000000001e-15
C124 b:0 0 9.66e-14


* Net:s ----------------


R328 s s:21 2.184
R329 s s:148 1.092
R330 s s:46 1.092
R331 s s:48 1.092
R332 s:48 s:7 2.184
R333 s:48 s:94 1.008
R334 s:48 s:62 1.092
R335 s:48 s:63 3.276
R336 s:63 s:22 2.184
R337 s:63 MN1@1:s 14
R338 s:63 s:149 1.092
R339 s:63 MN1@1:s 14
R340 s:63 s:64 4.368
R341 s:63 MN1@1:s 14
R342 s:64 s:23 2.184
R343 s:64 MN1@3:s 14
R344 s:64 s:150 1.092
R345 s:64 MN1@3:s 14
R346 s:64 s:65 4.368
R347 s:64 MN1@3:s 14
R348 s:65 s:24 2.184
R349 s:65 MN1@5:s 14
R350 s:65 s:151 1.092
R351 s:65 MN1@5:s 14
R352 s:65 s:66 4.368
R353 s:65 MN1@5:s 14
R354 s:66 s:25 2.184
R355 s:66 MN1@7:s 14
R356 s:66 s:152 1.092
R357 s:66 MN1@7:s 14
R358 s:66 s:67 4.368
R359 s:66 MN1@7:s 14
R360 s:67 s:26 2.184
R361 s:67 MN1@9:s 14
R362 s:67 s:153 1.092
R363 s:67 MN1@9:s 14
R364 s:67 s:68 4.368
R365 s:67 MN1@9:s 14
R366 s:68 s:27 2.184
R367 s:68 MN1@11:s 14
R368 s:68 s:154 1.092
R369 s:68 MN1@11:s 14
R370 s:68 s:69 4.368
R371 s:68 MN1@11:s 14
R372 s:69 s:28 2.184
R373 s:69 MN1@13:s 14
R374 s:69 s:155 1.092
R375 s:69 MN1@13:s 14
R376 s:69 s:70 4.368
R377 s:69 MN1@13:s 14
R378 s:70 s:29 2.184
R379 s:70 MN1@15:s 14
R380 s:70 s:156 1.092
R381 s:70 MN1@15:s 14
R382 s:70 s:71 4.368
R383 s:70 MN1@15:s 14
R384 s:71 s:30 2.184
R385 s:71 MN1@17:s 14
R386 s:71 s:157 1.092
R387 s:71 MN1@17:s 14
R388 s:71 s:72 4.368
R389 s:71 MN1@17:s 14
R390 s:72 s:31 2.184
R391 s:72 MN1@19:s 14
R392 s:72 s:158 1.092
R393 s:72 MN1@19:s 14
R394 s:72 s:73 4.368
R395 s:72 MN1@19:s 14
R396 s:73 s:32 2.184
R397 s:73 MN1@21:s 14
R398 s:73 s:159 1.092
R399 s:73 MN1@21:s 14
R400 s:73 s:74 4.368
R401 s:73 MN1@21:s 14
R402 s:74 s:33 2.184
R403 s:74 MN1@23:s 14
R404 s:74 s:160 1.092
R405 s:74 MN1@23:s 14
R406 s:74 s:75 4.368
R407 s:74 MN1@23:s 14
R408 s:75 s:34 2.184
R409 s:75 MN1@25:s 14
R410 s:75 s:161 1.092
R411 s:75 MN1@25:s 14
R412 s:75 s:76 4.368
R413 s:75 MN1@25:s 14
R414 s:76 s:35 2.184
R415 s:76 MN1@27:s 14
R416 s:76 s:162 1.092
R417 s:76 MN1@27:s 14
R418 s:76 s:77 4.368
R419 s:76 MN1@27:s 14
R420 s:77 s:36 2.184
R421 s:77 MN1@29:s 14
R422 s:77 s:163 1.092
R423 s:77 MN1@29:s 14
R424 s:77 s:78 4.368
R425 s:77 MN1@29:s 14
R426 s:78 s:37 2.184
R427 s:78 MN1@31:s 14
R428 s:78 s:164 1.092
R429 s:78 MN1@31:s 14
R430 s:78 s:79 4.368
R431 s:78 MN1@31:s 14
R432 s:79 s:38 2.184
R433 s:79 MN1@33:s 14
R434 s:79 s:165 1.092
R435 s:79 MN1@33:s 14
R436 s:79 s:80 4.368
R437 s:79 MN1@33:s 14
R438 s:80 s:39 2.184
R439 s:80 MN1@35:s 14
R440 s:80 s:166 1.092
R441 s:80 MN1@35:s 14
R442 s:80 s:81 4.368
R443 s:80 MN1@35:s 14
R444 s:81 s:40 2.184
R445 s:81 MN1@37:s 14
R446 s:81 s:167 1.092
R447 s:81 MN1@37:s 14
R448 s:81 s:85 1.092
R449 s:81 MN1@37:s 14
R450 s:167 s:128 3.36
R451 s:167 MN1@37:s 14
R452 s:40 s:39 4.368
R453 s:40 MN1@37:s 14
R454 s:40 s:83 1.092
R455 s:40 MN1@37:s 14
R456 s:39 s:38 4.368
R457 s:39 MN1@35:s 14
R458 s:38 s:37 4.368
R459 s:38 MN1@33:s 14
R460 s:37 s:36 4.368
R461 s:37 MN1@31:s 14
R462 s:36 s:35 4.368
R463 s:36 MN1@29:s 14
R464 s:35 s:34 4.368
R465 s:35 MN1@27:s 14
R466 s:34 s:33 4.368
R467 s:34 MN1@25:s 14
R468 s:33 s:32 4.368
R469 s:33 MN1@23:s 14
R470 s:32 s:31 4.368
R471 s:32 MN1@21:s 14
R472 s:31 s:30 4.368
R473 s:31 MN1@19:s 14
R474 s:30 s:29 4.368
R475 s:30 MN1@17:s 14
R476 s:29 s:28 4.368
R477 s:29 MN1@15:s 14
R478 s:28 s:27 4.368
R479 s:28 MN1@13:s 14
R480 s:27 s:26 4.368
R481 s:27 MN1@11:s 14
R482 s:26 s:25 4.368
R483 s:26 MN1@9:s 14
R484 s:25 s:24 4.368
R485 s:25 MN1@7:s 14
R486 s:24 s:23 4.368
R487 s:24 MN1@5:s 14
R488 s:23 s:22 4.368
R489 s:23 MN1@3:s 14
R490 s:22 s:7 3.276
R491 s:22 MN1@1:s 14
R492 s:7 s:95 1.008
R493 s:7 s:21 1.092
R494 s:21 s:62 2.184
R495 s:21 MN0@37:s 14
R496 s:21 s:5 1.092
R497 s:21 MN0@37:s 14
R498 s:5 s:92 1.008
R499 s:5 s:46 2.184
R500 s:5 s:20 3.276
R501 s:20 s:61 2.184
R502 s:20 MN0@35:s 14
R503 s:20 s:19 4.368
R504 s:20 MN0@35:s 14
R505 s:19 s:60 2.184
R506 s:19 MN0@33:s 14
R507 s:19 s:18 4.368
R508 s:19 MN0@33:s 14
R509 s:18 s:59 2.184
R510 s:18 MN0@31:s 14
R511 s:18 s:17 4.368
R512 s:18 MN0@31:s 14
R513 s:17 s:58 2.184
R514 s:17 MN0@29:s 14
R515 s:17 s:16 4.368
R516 s:17 MN0@29:s 14
R517 s:16 s:57 2.184
R518 s:16 MN0@27:s 14
R519 s:16 s:15 4.368
R520 s:16 MN0@27:s 14
R521 s:15 s:56 2.184
R522 s:15 MN0@25:s 14
R523 s:15 s:14 4.368
R524 s:15 MN0@25:s 14
R525 s:14 s:55 2.184
R526 s:14 MN0@23:s 14
R527 s:14 s:13 4.368
R528 s:14 MN0@23:s 14
R529 s:13 s:54 2.184
R530 s:13 MN0@21:s 14
R531 s:13 s:12 4.368
R532 s:13 MN0@21:s 14
R533 s:12 s:53 2.184
R534 s:12 MN0@19:s 14
R535 s:12 s:11 4.368
R536 s:12 MN0@19:s 14
R537 s:11 s:52 2.184
R538 s:11 MN0@17:s 14
R539 s:11 s:10 4.368
R540 s:11 MN0@17:s 14
R541 s:10 s:51 2.184
R542 s:10 MN0@15:s 14
R543 s:10 s:9 4.368
R544 s:10 MN0@15:s 14
R545 s:9 s:50 2.184
R546 s:9 MN0@13:s 14
R547 s:9 s:8 4.368
R548 s:9 MN0@13:s 14
R549 s:8 s:49 2.184
R550 s:8 MN0@11:s 14
R551 s:8 s:6 4.368
R552 s:8 MN0@11:s 14
R553 s:6 s:47 2.184
R554 s:6 MN0@9:s 14
R555 s:6 s:4 4.368
R556 s:6 MN0@9:s 14
R557 s:4 s:45 2.184
R558 s:4 MN0@7:s 14
R559 s:4 s:3 4.368
R560 s:4 MN0@7:s 14
R561 s:3 s:44 2.184
R562 s:3 MN0@5:s 14
R563 s:3 s:2 4.368
R564 s:3 MN0@5:s 14
R565 s:2 s:43 2.184
R566 s:2 MN0@3:s 14
R567 s:2 s:1 4.368
R568 s:2 MN0@3:s 14
R569 s:1 s:42 2.184
R570 s:1 MN0@1:s 14
R571 s:1 s:0 4.368
R572 s:1 MN0@1:s 14
R573 s:0 s:41 2.184
R574 s:0 MN0@0:s 14
R575 s:0 s:82 1.092
R576 s:0 MN0@0:s 14
R577 s:41 s:129 1.092
R578 s:41 MN0@0:s 14
R579 s:41 s:84 1.092
R580 s:41 MN0@0:s 14
R581 s:41 s:42 4.368
R582 s:41 MN0@0:s 14
R583 s:42 s:130 1.092
R584 s:42 MN0@1:s 14
R585 s:42 s:43 4.368
R586 s:42 MN0@1:s 14
R587 s:43 s:131 1.092
R588 s:43 MN0@3:s 14
R589 s:43 s:44 4.368
R590 s:43 MN0@3:s 14
R591 s:44 s:132 1.092
R592 s:44 MN0@5:s 14
R593 s:44 s:45 4.368
R594 s:44 MN0@5:s 14
R595 s:45 s:133 1.092
R596 s:45 MN0@7:s 14
R597 s:45 s:47 4.368
R598 s:45 MN0@7:s 14
R599 s:47 s:134 1.092
R600 s:47 MN0@9:s 14
R601 s:47 s:49 4.368
R602 s:47 MN0@9:s 14
R603 s:49 s:135 1.092
R604 s:49 MN0@11:s 14
R605 s:49 s:50 4.368
R606 s:49 MN0@11:s 14
R607 s:50 s:136 1.092
R608 s:50 MN0@13:s 14
R609 s:50 s:51 4.368
R610 s:50 MN0@13:s 14
R611 s:51 s:137 1.092
R612 s:51 MN0@15:s 14
R613 s:51 s:52 4.368
R614 s:51 MN0@15:s 14
R615 s:52 s:138 1.092
R616 s:52 MN0@17:s 14
R617 s:52 s:53 4.368
R618 s:52 MN0@17:s 14
R619 s:53 s:139 1.092
R620 s:53 MN0@19:s 14
R621 s:53 s:54 4.368
R622 s:53 MN0@19:s 14
R623 s:54 s:140 1.092
R624 s:54 MN0@21:s 14
R625 s:54 s:55 4.368
R626 s:54 MN0@21:s 14
R627 s:55 s:141 1.092
R628 s:55 MN0@23:s 14
R629 s:55 s:56 4.368
R630 s:55 MN0@23:s 14
R631 s:56 s:142 1.092
R632 s:56 MN0@25:s 14
R633 s:56 s:57 4.368
R634 s:56 MN0@25:s 14
R635 s:57 s:143 1.092
R636 s:57 MN0@27:s 14
R637 s:57 s:58 4.368
R638 s:57 MN0@27:s 14
R639 s:58 s:144 1.092
R640 s:58 MN0@29:s 14
R641 s:58 s:59 4.368
R642 s:58 MN0@29:s 14
R643 s:59 s:145 1.092
R644 s:59 MN0@31:s 14
R645 s:59 s:60 4.368
R646 s:59 MN0@31:s 14
R647 s:60 s:146 1.092
R648 s:60 MN0@33:s 14
R649 s:60 s:61 4.368
R650 s:60 MN0@33:s 14
R651 s:61 s:147 1.092
R652 s:61 MN0@35:s 14
R653 s:61 s:46 3.276
R654 s:61 MN0@35:s 14
R655 s:46 s:91 1.008
R656 s:46 s:62 1.092
R657 s:62 s:148 1.092
R658 s:62 MN0@37:s 14
R659 s:148 s:109 3.36
R660 s:148 MN0@37:s 14
R661 s:147 s:108 3.36
R662 s:147 MN0@35:s 14
R663 s:146 s:107 3.36
R664 s:146 MN0@33:s 14
R665 s:145 s:106 3.36
R666 s:145 MN0@31:s 14
R667 s:144 s:105 3.36
R668 s:144 MN0@29:s 14
R669 s:143 s:104 3.36
R670 s:143 MN0@27:s 14
R671 s:142 s:103 3.36
R672 s:142 MN0@25:s 14
R673 s:141 s:102 3.36
R674 s:141 MN0@23:s 14
R675 s:140 s:101 3.36
R676 s:140 MN0@21:s 14
R677 s:139 s:100 3.36
R678 s:139 MN0@19:s 14
R679 s:138 s:99 3.36
R680 s:138 MN0@17:s 14
R681 s:137 s:98 3.36
R682 s:137 MN0@15:s 14
R683 s:136 s:97 3.36
R684 s:136 MN0@13:s 14
R685 s:135 s:96 3.36
R686 s:135 MN0@11:s 14
R687 s:134 s:93 3.36
R688 s:134 MN0@9:s 14
R689 s:133 s:90 3.36
R690 s:133 MN0@7:s 14
R691 s:132 s:89 3.36
R692 s:132 MN0@5:s 14
R693 s:131 s:88 3.36
R694 s:131 MN0@3:s 14
R695 s:130 s:87 3.36
R696 s:130 MN0@1:s 14
R697 s:129 s:86 3.36
R698 s:129 MN0@0:s 14
R699 s:166 s:127 3.36
R700 s:166 MN1@35:s 14
R701 s:165 s:126 3.36
R702 s:165 MN1@33:s 14
R703 s:164 s:125 3.36
R704 s:164 MN1@31:s 14
R705 s:163 s:124 3.36
R706 s:163 MN1@29:s 14
R707 s:162 s:123 3.36
R708 s:162 MN1@27:s 14
R709 s:161 s:122 3.36
R710 s:161 MN1@25:s 14
R711 s:160 s:121 3.36
R712 s:160 MN1@23:s 14
R713 s:159 s:120 3.36
R714 s:159 MN1@21:s 14
R715 s:158 s:119 3.36
R716 s:158 MN1@19:s 14
R717 s:157 s:118 3.36
R718 s:157 MN1@17:s 14
R719 s:156 s:117 3.36
R720 s:156 MN1@15:s 14
R721 s:155 s:116 3.36
R722 s:155 MN1@13:s 14
R723 s:154 s:115 3.36
R724 s:154 MN1@11:s 14
R725 s:153 s:114 3.36
R726 s:153 MN1@9:s 14
R727 s:152 s:113 3.36
R728 s:152 MN1@7:s 14
R729 s:151 s:112 3.36
R730 s:151 MN1@5:s 14
R731 s:150 s:111 3.36
R732 s:150 MN1@3:s 14
R733 s:149 s:110 3.36
R734 s:149 MN1@1:s 14
R735 MN0@1:s MN0@2:s 0.01
R736 MN0@3:s MN0@4:s 0.01
R737 MN0@5:s MN0@6:s 0.01
R738 MN0@7:s MN0@8:s 0.01
R739 MN0@9:s MN0@10:s 0.01
R740 MN0@11:s MN0@12:s 0.01
R741 MN0@13:s MN0@14:s 0.01
R742 MN0@15:s MN0@16:s 0.01
R743 MN0@17:s MN0@18:s 0.01
R744 MN0@19:s MN0@20:s 0.01
R745 MN0@21:s MN0@22:s 0.01
R746 MN0@23:s MN0@24:s 0.01
R747 MN0@25:s MN0@26:s 0.01
R748 MN0@27:s MN0@28:s 0.01
R749 MN0@29:s MN0@30:s 0.01
R750 MN0@31:s MN0@32:s 0.01
R751 MN0@33:s MN0@34:s 0.01
R752 MN0@35:s MN0@36:s 0.01
R753 MN0@37:s MN1@0:s 0.01
R754 MN1@1:s MN1@2:s 0.01
R755 MN1@3:s MN1@4:s 0.01
R756 MN1@5:s MN1@6:s 0.01
R757 MN1@7:s MN1@8:s 0.01
R758 MN1@9:s MN1@10:s 0.01
R759 MN1@11:s MN1@12:s 0.01
R760 MN1@13:s MN1@14:s 0.01
R761 MN1@15:s MN1@16:s 0.01
R762 MN1@17:s MN1@18:s 0.01
R763 MN1@19:s MN1@20:s 0.01
R764 MN1@21:s MN1@22:s 0.01
R765 MN1@23:s MN1@24:s 0.01
R766 MN1@25:s MN1@26:s 0.01
R767 MN1@27:s MN1@28:s 0.01
R768 MN1@29:s MN1@30:s 0.01
R769 MN1@31:s MN1@32:s 0.01
R770 MN1@33:s MN1@34:s 0.01
R771 MN1@35:s MN1@36:s 0.01
R772 MN1@37:s MN2@0:s 0.01
C125 s:48 0 1.6380000000000002e-14
C126 s:48 0 7.56e-15
C127 s:48 0 8.189999999999905e-15
C128 s:48 0 2.4570000000000098e-14
C129 s:63 0 1.6380000000000002e-14
C130 s:63 0 8.190000000000001e-15
C131 s:63 0 3.2760000000000004e-14
C132 s:64 0 1.6380000000000002e-14
C133 s:64 0 8.190000000000001e-15
C134 s:64 0 3.2760000000000004e-14
C135 s:65 0 1.6380000000000002e-14
C136 s:65 0 8.190000000000001e-15
C137 s:65 0 3.2760000000000004e-14
C138 s:66 0 1.6380000000000002e-14
C139 s:66 0 8.190000000000001e-15
C140 s:66 0 3.27600000000001e-14
C141 s:67 0 1.6380000000000002e-14
C142 s:67 0 8.190000000000001e-15
C143 s:67 0 3.275999999999991e-14
C144 s:68 0 1.6380000000000002e-14
C145 s:68 0 8.190000000000001e-15
C146 s:68 0 3.2760000000000004e-14
C147 s:69 0 1.6380000000000002e-14
C148 s:69 0 8.190000000000001e-15
C149 s:69 0 3.2760000000000004e-14
C150 s:70 0 1.6380000000000002e-14
C151 s:70 0 8.190000000000001e-15
C152 s:70 0 3.2760000000000004e-14
C153 s:71 0 1.6380000000000002e-14
C154 s:71 0 8.190000000000001e-15
C155 s:71 0 3.2760000000000004e-14
C156 s:72 0 1.6380000000000002e-14
C157 s:72 0 8.190000000000001e-15
C158 s:72 0 3.2760000000000004e-14
C159 s:73 0 1.6380000000000002e-14
C160 s:73 0 8.190000000000001e-15
C161 s:73 0 3.2760000000000004e-14
C162 s:74 0 1.6380000000000002e-14
C163 s:74 0 8.190000000000001e-15
C164 s:74 0 3.2760000000000004e-14
C165 s:75 0 1.6380000000000002e-14
C166 s:75 0 8.190000000000001e-15
C167 s:75 0 3.2760000000000004e-14
C168 s:76 0 1.6380000000000002e-14
C169 s:76 0 8.190000000000001e-15
C170 s:76 0 3.2760000000000004e-14
C171 s:77 0 1.6380000000000002e-14
C172 s:77 0 8.190000000000001e-15
C173 s:77 0 3.2760000000000004e-14
C174 s:78 0 1.6380000000000002e-14
C175 s:78 0 8.190000000000001e-15
C176 s:78 0 3.2760000000000004e-14
C177 s:79 0 1.6380000000000002e-14
C178 s:79 0 8.190000000000001e-15
C179 s:79 0 3.2760000000000004e-14
C180 s:80 0 1.6380000000000002e-14
C181 s:80 0 8.190000000000001e-15
C182 s:80 0 3.2760000000000004e-14
C183 s:81 0 1.6380000000000002e-14
C184 s:81 0 8.190000000000001e-15
C185 s:81 0 8.190000000000001e-15
C186 s:167 0 2.5200000000000002e-14
C187 s:40 0 3.2760000000000004e-14
C188 s:40 0 8.190000000000001e-15
C189 s:39 0 3.2760000000000004e-14
C190 s:38 0 3.2760000000000004e-14
C191 s:37 0 3.2760000000000004e-14
C192 s:36 0 3.2760000000000004e-14
C193 s:35 0 3.2760000000000004e-14
C194 s:34 0 3.2760000000000004e-14
C195 s:33 0 3.2760000000000004e-14
C196 s:32 0 3.2760000000000004e-14
C197 s:31 0 3.2760000000000004e-14
C198 s:30 0 3.2760000000000004e-14
C199 s:29 0 3.2760000000000004e-14
C200 s:28 0 3.2760000000000004e-14
C201 s:27 0 3.275999999999991e-14
C202 s:26 0 3.27600000000001e-14
C203 s:25 0 3.2760000000000004e-14
C204 s:24 0 3.2760000000000004e-14
C205 s:23 0 3.2760000000000004e-14
C206 s:22 0 2.4570000000000098e-14
C207 s:7 0 7.56e-15
C208 s:7 0 8.189999999999905e-15
C209 s:21 0 1.6380000000000002e-14
C210 s:21 0 8.190000000000001e-15
C211 s:5 0 7.56e-15
C212 s:5 0 1.6380000000000002e-14
C213 s:5 0 2.457e-14
C214 s:20 0 1.6380000000000002e-14
C215 s:20 0 3.2760000000000004e-14
C216 s:19 0 1.6380000000000002e-14
C217 s:19 0 3.2760000000000004e-14
C218 s:18 0 1.6380000000000002e-14
C219 s:18 0 3.2760000000000004e-14
C220 s:17 0 1.6380000000000002e-14
C221 s:17 0 3.2760000000000004e-14
C222 s:16 0 1.6380000000000002e-14
C223 s:16 0 3.2760000000000004e-14
C224 s:15 0 1.6380000000000002e-14
C225 s:15 0 3.2760000000000004e-14
C226 s:14 0 1.6380000000000002e-14
C227 s:14 0 3.2760000000000004e-14
C228 s:13 0 1.6380000000000002e-14
C229 s:13 0 3.276000000000005e-14
C230 s:12 0 1.6380000000000002e-14
C231 s:12 0 3.2759999999999953e-14
C232 s:11 0 1.6380000000000002e-14
C233 s:11 0 3.2760000000000004e-14
C234 s:10 0 1.6380000000000002e-14
C235 s:10 0 3.2760000000000004e-14
C236 s:9 0 1.6380000000000002e-14
C237 s:9 0 3.2760000000000004e-14
C238 s:8 0 1.6380000000000002e-14
C239 s:8 0 3.276000000000002e-14
C240 s:6 0 1.6380000000000002e-14
C241 s:6 0 3.275999999999998e-14
C242 s:4 0 1.6380000000000002e-14
C243 s:4 0 3.2760000000000004e-14
C244 s:3 0 1.6380000000000002e-14
C245 s:3 0 3.2760000000000004e-14
C246 s:2 0 1.6380000000000002e-14
C247 s:2 0 3.2760000000000004e-14
C248 s:1 0 1.6380000000000002e-14
C249 s:1 0 3.2760000000000004e-14
C250 s:0 0 1.6380000000000002e-14
C251 s:0 0 8.190000000000001e-15
C252 s:41 0 8.190000000000001e-15
C253 s:41 0 8.190000000000001e-15
C254 s:41 0 3.2760000000000004e-14
C255 s:42 0 8.190000000000001e-15
C256 s:42 0 3.2760000000000004e-14
C257 s:43 0 8.190000000000001e-15
C258 s:43 0 3.2760000000000004e-14
C259 s:44 0 8.190000000000001e-15
C260 s:44 0 3.2760000000000004e-14
C261 s:45 0 8.190000000000001e-15
C262 s:45 0 3.275999999999998e-14
C263 s:47 0 8.190000000000001e-15
C264 s:47 0 3.276000000000002e-14
C265 s:49 0 8.190000000000001e-15
C266 s:49 0 3.2760000000000004e-14
C267 s:50 0 8.190000000000001e-15
C268 s:50 0 3.2760000000000004e-14
C269 s:51 0 8.190000000000001e-15
C270 s:51 0 3.2760000000000004e-14
C271 s:52 0 8.190000000000001e-15
C272 s:52 0 3.2759999999999953e-14
C273 s:53 0 8.190000000000001e-15
C274 s:53 0 3.276000000000005e-14
C275 s:54 0 8.190000000000001e-15
C276 s:54 0 3.2760000000000004e-14
C277 s:55 0 8.190000000000001e-15
C278 s:55 0 3.2760000000000004e-14
C279 s:56 0 8.190000000000001e-15
C280 s:56 0 3.2760000000000004e-14
C281 s:57 0 8.190000000000001e-15
C282 s:57 0 3.2760000000000004e-14
C283 s:58 0 8.190000000000001e-15
C284 s:58 0 3.2760000000000004e-14
C285 s:59 0 8.190000000000001e-15
C286 s:59 0 3.2760000000000004e-14
C287 s:60 0 8.190000000000001e-15
C288 s:60 0 3.2760000000000004e-14
C289 s:61 0 8.190000000000001e-15
C290 s:61 0 2.457e-14
C291 s:46 0 7.56e-15
C292 s:46 0 8.190000000000001e-15
C293 s:62 0 8.190000000000001e-15
C294 s:148 0 2.5200000000000002e-14
C295 s:147 0 2.5200000000000002e-14
C296 s:146 0 2.5200000000000002e-14
C297 s:145 0 2.5200000000000002e-14
C298 s:144 0 2.5200000000000002e-14
C299 s:143 0 2.5200000000000002e-14
C300 s:142 0 2.5200000000000002e-14
C301 s:141 0 2.5200000000000002e-14
C302 s:140 0 2.5200000000000002e-14
C303 s:139 0 2.5200000000000002e-14
C304 s:138 0 2.5200000000000002e-14
C305 s:137 0 2.5200000000000002e-14
C306 s:136 0 2.5200000000000002e-14
C307 s:135 0 2.5200000000000002e-14
C308 s:134 0 2.5200000000000002e-14
C309 s:133 0 2.5200000000000002e-14
C310 s:132 0 2.5200000000000002e-14
C311 s:131 0 2.5200000000000002e-14
C312 s:130 0 2.5200000000000002e-14
C313 s:129 0 2.5200000000000002e-14
C314 s:166 0 2.5200000000000002e-14
C315 s:165 0 2.5200000000000002e-14
C316 s:164 0 2.5200000000000002e-14
C317 s:163 0 2.5200000000000002e-14
C318 s:162 0 2.5200000000000002e-14
C319 s:161 0 2.5200000000000002e-14
C320 s:160 0 2.5200000000000002e-14
C321 s:159 0 2.5200000000000002e-14
C322 s:158 0 2.5200000000000002e-14
C323 s:157 0 2.5200000000000002e-14
C324 s:156 0 2.5200000000000002e-14
C325 s:155 0 2.5200000000000002e-14
C326 s:154 0 2.5200000000000002e-14
C327 s:153 0 2.5200000000000002e-14
C328 s:152 0 2.5200000000000002e-14
C329 s:151 0 2.5200000000000002e-14
C330 s:150 0 2.5200000000000002e-14
C331 s:149 0 2.5200000000000002e-14


* Net:d0 ----------------


R773 d0 d0:11 2.184
R774 d0 d0:31 0.043
R775 d0 d0:22 2.184
R776 d0 d0:24 2.184
R777 d0:24 d0:4 2.224
R778 d0:24 d0:51 0.968
R779 d0:24 d0:31 2.184
R780 d0:24 d0:32 2.184
R781 d0:32 d0:12 2.222
R782 d0:32 MN0@20:d 14
R783 d0:32 d0:33 4.368
R784 d0:32 MN0@20:d 14
R785 d0:33 d0:13 2.217
R786 d0:33 MN0@22:d 14
R787 d0:33 d0:34 4.368
R788 d0:33 MN0@22:d 14
R789 d0:34 d0:14 2.213
R790 d0:34 MN0@24:d 14
R791 d0:34 d0:35 4.368
R792 d0:34 MN0@24:d 14
R793 d0:35 d0:15 2.208
R794 d0:35 MN0@26:d 14
R795 d0:35 d0:36 4.368
R796 d0:35 MN0@26:d 14
R797 d0:36 d0:16 2.203
R798 d0:36 MN0@28:d 14
R799 d0:36 d0:37 4.368
R800 d0:36 MN0@28:d 14
R801 d0:37 d0:17 2.199
R802 d0:37 MN0@30:d 14
R803 d0:37 d0:38 4.368
R804 d0:37 MN0@30:d 14
R805 d0:38 d0:18 2.194
R806 d0:38 MN0@32:d 14
R807 d0:38 d0:39 4.368
R808 d0:38 MN0@32:d 14
R809 d0:39 d0:19 2.19
R810 d0:39 MN0@34:d 14
R811 d0:39 d0:40 4.368
R812 d0:39 MN0@34:d 14
R813 d0:40 d0:20 2.185
R814 d0:40 MN0@36:d 14
R815 d0:40 d0:44 1.008
R816 d0:40 MN0@36:d 14
R817 d0:20 d0:87 1.092
R818 d0:20 MN0@36:d 14
R819 d0:20 d0:19 4.368
R820 d0:20 MN0@36:d 14
R821 d0:20 d0:42 1.008
R822 d0:20 MN0@36:d 14
R823 d0:19 d0:86 1.092
R824 d0:19 MN0@34:d 14
R825 d0:19 d0:18 4.368
R826 d0:19 MN0@34:d 14
R827 d0:18 d0:85 1.092