*|DSPF	1.5
*|DESIGN	nmos_cm_3x25x1_111_1
*|DATE	"Wed Jun 19 2025"
*|VENDOR	"Mentor Graphics Corporation"
*|PROGRAM	"Calibre xACT"
*|VERSION	"v2020.4_34.17"
*|DIVIDER	|
*|DELIMITER	:
*|BUSBIT	[]
* Corner Name: 12lp_11M_3Mx_4Cx_2Kx_2Gx_LB_nominal_detailed_25
* Nominal Temperature: 25C
* Circuit Temperature: 25C
*

* Integrated TICER reduction is not enabled.
* SHORT DELAY THRESHOLD: 2e-14
* Fill Mode: NG
* PEX REDUCE CC ABSOLUTE : disabled
* PEX REDUCE CC RATIO : disabled
* Delta transform mode : 344834

.subckt nmos_cm_3x25x1_111_1 d0 d1 s

* Net:s ----------------


R1 s s:25 7.644
R2 s s:39 5.46
R3 s:39 s:181 0.924
R4 s:39 MN1@0:s 14
R5 s:39 s:134 5.124
R6 s:39 MN1@0:s 14
R7 s:39 s:40 4.368
R8 s:39 MN1@0:s 14
R9 s:40 s:182 0.924
R10 s:40 MN1@1:s 14
R11 s:40 s:136 5.124
R12 s:40 MN1@1:s 14
R13 s:40 s:41 4.368
R14 s:40 MN1@1:s 14
R15 s:41 s:183 0.924
R16 s:41 MN1@3:s 14
R17 s:41 s:138 5.124
R18 s:41 MN1@3:s 14
R19 s:41 s:42 4.368
R20 s:41 MN1@3:s 14
R21 s:42 s:184 0.924
R22 s:42 MN1@5:s 14
R23 s:42 s:140 5.124
R24 s:42 MN1@5:s 14
R25 s:42 s:43 4.368
R26 s:42 MN1@5:s 14
R27 s:43 s:185 0.924
R28 s:43 MN1@7:s 14
R29 s:43 s:142 5.124
R30 s:43 MN1@7:s 14
R31 s:43 s:44 4.368
R32 s:43 MN1@7:s 14
R33 s:44 s:186 0.924
R34 s:44 MN1@9:s 14
R35 s:44 s:144 5.124
R36 s:44 MN1@9:s 14
R37 s:44 s:45 4.368
R38 s:44 MN1@9:s 14
R39 s:45 s:187 0.924
R40 s:45 MN1@11:s 14
R41 s:45 s:146 5.124
R42 s:45 MN1@11:s 14
R43 s:45 s:55 3.724
R44 s:45 MN1@11:s 14
R45 s:55 s:53 12.292
R46 s:55 s:166 1.008
R47 s:55 s:46 0.644
R48 s:46 s:188 0.924
R49 s:46 MN1@13:s 14
R50 s:46 s:148 5.124
R51 s:46 MN1@13:s 14
R52 s:46 s:47 4.368
R53 s:46 MN1@13:s 14
R54 s:47 s:189 0.924
R55 s:47 MN1@15:s 14
R56 s:47 s:150 5.124
R57 s:47 MN1@15:s 14
R58 s:47 s:48 4.368
R59 s:47 MN1@15:s 14
R60 s:48 s:190 0.924
R61 s:48 MN1@17:s 14
R62 s:48 s:152 5.124
R63 s:48 MN1@17:s 14
R64 s:48 s:49 4.368
R65 s:48 MN1@17:s 14
R66 s:49 s:191 0.924
R67 s:49 MN1@19:s 14
R68 s:49 s:154 5.124
R69 s:49 MN1@19:s 14
R70 s:49 s:50 4.368
R71 s:49 MN1@19:s 14
R72 s:50 s:192 0.924
R73 s:50 MN1@21:s 14
R74 s:50 s:156 5.124
R75 s:50 MN1@21:s 14
R76 s:50 s:51 4.368
R77 s:50 MN1@21:s 14
R78 s:51 s:193 0.924
R79 s:51 MN1@23:s 14
R80 s:51 s:158 5.124
R81 s:51 MN1@23:s 14
R82 s:51 s:163 3.276
R83 s:51 MN1@23:s 14
R84 s:193 s:159 2.016
R85 s:193 MN1@23:s 14
R86 s:192 s:157 2.016
R87 s:192 MN1@21:s 14
R88 s:191 s:155 2.016
R89 s:191 MN1@19:s 14
R90 s:190 s:153 2.016
R91 s:190 MN1@17:s 14
R92 s:189 s:151 2.016
R93 s:189 MN1@15:s 14
R94 s:188 s:149 2.016
R95 s:188 MN1@13:s 14
R96 s:53 s:167 1.288
R97 s:53 s:32 2.632
R98 s:53 s:33 0.896
R99 s:33 s:123 1.12
R100 s:33 MN1@0:b 14
R101 s:33 s:122 1.12
R102 s:33 MN1@0:b 14
R103 s:33 s:34 3.528
R104 s:33 MN1@0:b 14
R105 s:34 s:125 1.12
R106 s:34 MN1@0:b 14
R107 s:34 s:124 1.12
R108 s:34 MN1@0:b 14
R109 s:34 s:35 3.528
R110 s:34 MN1@0:b 14
R111 s:35 s:127 1.12
R112 s:35 MN1@0:b 14
R113 s:35 s:126 1.12
R114 s:35 MN1@0:b 14
R115 s:35 s:36 3.528
R116 s:35 MN1@0:b 14
R117 s:36 s:129 1.12
R118 s:36 MN1@0:b 14
R119 s:36 s:128 1.12
R120 s:36 MN1@0:b 14
R121 s:36 s:37 3.528
R122 s:36 MN1@0:b 14
R123 s:37 s:131 1.12
R124 s:37 MN1@0:b 14
R125 s:37 s:130 1.12
R126 s:37 MN1@0:b 14
R127 s:37 s:38 3.528
R128 s:37 MN1@0:b 14
R129 s:38 s:133 1.12
R130 s:38 MN1@0:b 14
R131 s:38 s:132 1.12
R132 s:38 MN1@0:b 14
R133 s:38 s:161 6.58
R134 s:38 MN1@0:b 14
R135 s:32 s:121 1.12
R136 s:32 MN1@0:b 14
R137 s:32 s:120 1.12
R138 s:32 MN1@0:b 14
R139 s:32 s:31 3.528
R140 s:32 MN1@0:b 14
R141 s:31 s:119 1.12
R142 s:31 MN1@0:b 14
R143 s:31 s:118 1.12
R144 s:31 MN1@0:b 14
R145 s:31 s:30 3.528
R146 s:31 MN1@0:b 14
R147 s:30 s:117 1.12
R148 s:30 MN1@0:b 14
R149 s:30 s:116 1.12
R150 s:30 MN1@0:b 14
R151 s:30 s:29 3.528
R152 s:30 MN1@0:b 14
R153 s:29 s:115 1.12
R154 s:29 MN1@0:b 14
R155 s:29 s:114 1.12
R156 s:29 MN1@0:b 14
R157 s:29 s:28 3.528
R158 s:29 MN1@0:b 14
R159 s:28 s:113 1.12
R160 s:28 MN1@0:b 14
R161 s:28 s:112 1.12
R162 s:28 MN1@0:b 14
R163 s:28 s:27 3.528
R164 s:28 MN1@0:b 14
R165 s:27 s:111 1.12
R166 s:27 MN1@0:b 14
R167 s:27 s:110 1.12
R168 s:27 MN1@0:b 14
R169 s:27 s:26 3.528
R170 s:27 MN1@0:b 14
R171 s:26 s:109 1.12
R172 s:26 MN1@0:b 14
R173 s:26 s:108 1.12
R174 s:26 MN1@0:b 14
R175 s:26 s:12 23.184
R176 s:26 MN1@0:b 14
R177 s:12 s:81 1.12
R178 s:12 MN0@0:b 14
R179 s:12 s:80 1.12
R180 s:12 MN0@0:b 14
R181 s:12 s:11 3.528
R182 s:12 MN0@0:b 14
R183 s:11 s:79 1.12
R184 s:11 MN0@0:b 14
R185 s:11 s:78 1.12
R186 s:11 MN0@0:b 14
R187 s:11 s:10 3.528
R188 s:11 MN0@0:b 14
R189 s:10 s:77 1.12
R190 s:10 MN0@0:b 14
R191 s:10 s:76 1.12
R192 s:10 MN0@0:b 14
R193 s:10 s:9 3.528
R194 s:10 MN0@0:b 14
R195 s:9 s:75 1.12
R196 s:9 MN0@0:b 14
R197 s:9 s:74 1.12
R198 s:9 MN0@0:b 14
R199 s:9 s:8 3.528
R200 s:9 MN0@0:b 14
R201 s:8 s:73 1.12
R202 s:8 MN0@0:b 14
R203 s:8 s:72 1.12
R204 s:8 MN0@0:b 14
R205 s:8 s:7 3.528
R206 s:8 MN0@0:b 14
R207 s:7 s:71 1.12
R208 s:7 MN0@0:b 14
R209 s:7 s:70 1.12
R210 s:7 MN0@0:b 14
R211 s:7 s:52 0.896
R212 s:7 MN0@0:b 14
R213 s:52 s:165 1.288
R214 s:52 s:54 12.292
R215 s:52 s:6 2.632
R216 s:6 s:69 1.12
R217 s:6 MN0@0:b 14
R218 s:6 s:68 1.12
R219 s:6 MN0@0:b 14
R220 s:6 s:5 3.528
R221 s:6 MN0@0:b 14
R222 s:5 s:67 1.12
R223 s:5 MN0@0:b 14
R224 s:5 s:66 1.12
R225 s:5 MN0@0:b 14
R226 s:5 s:4 3.528
R227 s:5 MN0@0:b 14
R228 s:4 s:65 1.12
R229 s:4 MN0@0:b 14
R230 s:4 s:64 1.12
R231 s:4 MN0@0:b 14
R232 s:4 s:3 3.528
R233 s:4 MN0@0:b 14
R234 s:3 s:63 1.12
R235 s:3 MN0@0:b 14
R236 s:3 s:62 1.12
R237 s:3 MN0@0:b 14
R238 s:3 s:2 3.528
R239 s:3 MN0@0:b 14
R240 s:2 s:61 1.12
R241 s:2 MN0@0:b 14
R242 s:2 s:60 1.12
R243 s:2 MN0@0:b 14
R244 s:2 s:1 3.528
R245 s:2 MN0@0:b 14
R246 s:1 s:59 1.12
R247 s:1 MN0@0:b 14
R248 s:1 s:58 1.12
R249 s:1 MN0@0:b 14
R250 s:1 s:0 3.528
R251 s:1 MN0@0:b 14
R252 s:0 s:57 1.12
R253 s:0 MN0@0:b 14
R254 s:0 s:56 1.12
R255 s:0 MN0@0:b 14
R256 s:0 s:160 6.58
R257 s:0 MN0@0:b 14
R258 s:54 s:164 1.008
R259 s:54 s:19 3.724
R260 s:54 s:20 0.644
R261 s:20 s:175 0.924
R262 s:20 MN0@13:s 14
R263 s:20 s:96 5.124
R264 s:20 MN0@13:s 14
R265 s:20 s:21 4.368
R266 s:20 MN0@13:s 14
R267 s:21 s:176 0.924
R268 s:21 MN0@15:s 14
R269 s:21 s:98 5.124
R270 s:21 MN0@15:s 14
R271 s:21 s:22 4.368
R272 s:21 MN0@15:s 14
R273 s:22 s:177 0.924
R274 s:22 MN0@17:s 14
R275 s:22 s:100 5.124
R276 s:22 MN0@17:s 14
R277 s:22 s:23 4.368
R278 s:22 MN0@17:s 14
R279 s:23 s:178 0.924
R280 s:23 MN0@19:s 14
R281 s:23 s:102 5.124
R282 s:23 MN0@19:s 14
R283 s:23 s:24 4.368
R284 s:23 MN0@19:s 14
R285 s:24 s:179 0.924
R286 s:24 MN0@21:s 14
R287 s:24 s:104 5.124
R288 s:24 MN0@21:s 14
R289 s:24 s:25 4.368
R290 s:24 MN0@21:s 14
R291 s:25 s:180 0.924
R292 s:25 MN0@23:s 14
R293 s:25 s:106 5.124
R294 s:25 MN0@23:s 14
R295 s:180 s:107 2.016
R296 s:180 MN0@23:s 14
R297 s:179 s:105 2.016
R298 s:179 MN0@21:s 14
R299 s:178 s:103 2.016
R300 s:178 MN0@19:s 14
R301 s:177 s:101 2.016
R302 s:177 MN0@17:s 14
R303 s:176 s:99 2.016
R304 s:176 MN0@15:s 14
R305 s:175 s:97 2.016
R306 s:175 MN0@13:s 14
R307 s:19 s:174 0.924
R308 s:19 MN0@11:s 14
R309 s:19 s:94 5.124
R310 s:19 MN0@11:s 14
R311 s:19 s:18 4.368
R312 s:19 MN0@11:s 14
R313 s:18 s:173 0.924
R314 s:18 MN0@9:s 14
R315 s:18 s:92 5.124
R316 s:18 MN0@9:s 14
R317 s:18 s:17 4.368
R318 s:18 MN0@9:s 14
R319 s:17 s:172 0.924
R320 s:17 MN0@7:s 14
R321 s:17 s:90 5.124
R322 s:17 MN0@7:s 14
R323 s:17 s:16 4.368
R324 s:17 MN0@7:s 14
R325 s:16 s:171 0.924
R326 s:16 MN0@5:s 14
R327 s:16 s:88 5.124
R328 s:16 MN0@5:s 14
R329 s:16 s:15 4.368
R330 s:16 MN0@5:s 14
R331 s:15 s:170 0.924
R332 s:15 MN0@3:s 14
R333 s:15 s:86 5.124
R334 s:15 MN0@3:s 14
R335 s:15 s:14 4.368
R336 s:15 MN0@3:s 14
R337 s:14 s:169 0.924
R338 s:14 MN0@1:s 14
R339 s:14 s:84 5.124
R340 s:14 MN0@1:s 14
R341 s:14 s:13 4.368
R342 s:14 MN0@1:s 14
R343 s:13 s:168 0.924
R344 s:13 MN0@0:s 14
R345 s:13 s:82 5.124
R346 s:13 MN0@0:s 14
R347 s:13 s:162 1.092
R348 s:13 MN0@0:s 14
R349 s:168 s:83 2.016
R350 s:168 MN0@0:s 14
R351 s:169 s:85 2.016
R352 s:169 MN0@1:s 14
R353 s:170 s:87 2.016
R354 s:170 MN0@3:s 14
R355 s:171 s:89 2.016
R356 s:171 MN0@5:s 14
R357 s:172 s:91 2.016
R358 s:172 MN0@7:s 14
R359 s:173 s:93 2.016
R360 s:173 MN0@9:s 14
R361 s:174 s:95 2.016
R362 s:174 MN0@11:s 14
R363 s:187 s:147 2.016
R364 s:187 MN1@11:s 14
R365 s:186 s:145 2.016
R366 s:186 MN1@9:s 14
R367 s:185 s:143 2.016
R368 s:185 MN1@7:s 14
R369 s:184 s:141 2.016
R370 s:184 MN1@5:s 14
R371 s:183 s:139 2.016
R372 s:183 MN1@3:s 14
R373 s:182 s:137 2.016
R374 s:182 MN1@1:s 14
R375 s:181 s:135 2.016
R376 s:181 MN1@0:s 14
R377 MN0@0:b MN0@1:b 0.01
R378 MN0@1:b MN0@2:b 0.01
R379 MN0@2:b MN0@3:b 0.01
R380 MN0@3:b MN0@4:b 0.01
R381 MN0@4:b MN0@5:b 0.01
R382 MN0@5:b MN0@6:b 0.01
R383 MN0@6:b MN0@7:b 0.01
R384 MN0@7:b MN0@8:b 0.01
R385 MN0@8:b MN0@9:b 0.01
R386 MN0@9:b MN0@10:b 0.01
R387 MN0@10:b MN0@11:b 0.01
R388 MN0@11:b MN0@12:b 0.01
R389 MN0@12:b MN0@13:b 0.01
R390 MN0@13:b MN0@14:b 0.01
R391 MN0@14:b MN0@15:b 0.01
R392 MN0@15:b MN0@16:b 0.01
R393 MN0@16:b MN0@17:b 0.01
R394 MN0@17:b MN0@18:b 0.01
R395 MN0@18:b MN0@19:b 0.01
R396 MN0@19:b MN0@20:b 0.01
R397 MN0@20:b MN0@21:b 0.01
R398 MN0@21:b MN0@22:b 0.01
R399 MN0@22:b MN0@23:b 0.01
R400 MN0@23:b MN0@24:b 0.01
R401 MN0@1:s MN0@2:s 0.01
R402 MN0@3:s MN0@4:s 0.01
R403 MN0@5:s MN0@6:s 0.01
R404 MN0@7:s MN0@8:s 0.01
R405 MN0@9:s MN0@10:s 0.01
R406 MN0@11:s MN0@12:s 0.01
R407 MN0@13:s MN0@14:s 0.01
R408 MN0@15:s MN0@16:s 0.01
R409 MN0@17:s MN0@18:s 0.01
R410 MN0@19:s MN0@20:s 0.01
R411 MN0@21:s MN0@22:s 0.01
R412 MN0@23:s MN0@24:s 0.01
R413 MN1@0:b MN1@1:b 0.01
R414 MN1@1:b MN1@2:b 0.01
R415 MN1@2:b MN1@3:b 0.01
R416 MN1@3:b MN1@4:b 0.01
R417 MN1@4:b MN1@5:b 0.01
R418 MN1@5:b MN1@6:b 0.01
R419 MN1@6:b MN1@7:b 0.01
R420 MN1@7:b MN1@8:b 0.01
R421 MN1@8:b MN1@9:b 0.01
R422 MN1@9:b MN1@10:b 0.01
R423 MN1@10:b MN1@11:b 0.01
R424 MN1@11:b MN1@12:b 0.01
R425 MN1@12:b MN1@13:b 0.01
R426 MN1@13:b MN1@14:b 0.01
R427 MN1@14:b MN1@15:b 0.01
R428 MN1@15:b MN1@16:b 0.01
R429 MN1@16:b MN1@17:b 0.01
R430 MN1@17:b MN1@18:b 0.01
R431 MN1@18:b MN1@19:b 0.01
R432 MN1@19:b MN1@20:b 0.01
R433 MN1@20:b MN1@21:b 0.01
R434 MN1@21:b MN1@22:b 0.01
R435 MN1@22:b MN1@23:b 0.01
R436 MN1@23:b MN1@24:b 0.01
R437 MN1@1:s MN1@2:s 0.01
R438 MN1@3:s MN1@4:s 0.01
R439 MN1@5:s MN1@6:s 0.01
R440 MN1@7:s MN1@8:s 0.01
R441 MN1@9:s MN1@10:s 0.01
R442 MN1@11:s MN1@12:s 0.01
R443 MN1@13:s MN1@14:s 0.01
R444 MN1@15:s MN1@16:s 0.01
R445 MN1@17:s MN1@18:s 0.01
R446 MN1@19:s MN1@20:s 0.01
R447 MN1@21:s MN1@22:s 0.01
R448 MN1@23:s MN1@24:s 0.01
C1 s:39 0 6.93e-15
C2 s:39 0 3.843e-14
C3 s:39 0 3.2760000000000004e-14
C4 s:40 0 6.93e-15
C5 s:40 0 3.843e-14
C6 s:40 0 3.2760000000000004e-14
C7 s:41 0 6.93e-15
C8 s:41 0 3.843e-14
C9 s:41 0 3.2760000000000004e-14
C10 s:42 0 6.93e-15
C11 s:42 0 3.843e-14
C12 s:42 0 3.2760000000000004e-14
C13 s:43 0 6.93e-15
C14 s:43 0 3.843e-14
C15 s:43 0 3.2760000000000004e-14
C16 s:44 0 6.93e-15
C17 s:44 0 3.843e-14
C18 s:44 0 3.2760000000000004e-14
C19 s:45 0 6.93e-15
C20 s:45 0 3.843e-14
C21 s:45 0 2.793e-14
C22 s:55 0 9.219000000000001e-14
C23 s:55 0 7.56e-15
C24 s:55 0 4.83e-15
C25 s:46 0 6.93e-15
C26 s:46 0 3.843e-14
C27 s:46 0 3.2760000000000004e-14
C28 s:47 0 6.93e-15
C29 s:47 0 3.843e-14
C30 s:47 0 3.2760000000000004e-14
C31 s:48 0 6.93e-15
C32 s:48 0 3.843e-14
C33 s:48 0 3.2760000000000004e-14
C34 s:49 0 6.93e-15
C35 s:49 0 3.843e-14
C36 s:49 0 3.2760000000000004e-14
C37 s:50 0 6.93e-15
C38 s:50 0 3.843e-14
C39 s:50 0 3.2760000000000004e-14
C40 s:51 0 6.93e-15
C41 s:51 0 3.843e-14
C42 s:51 0 2.457e-14
C43 s:193 0 1.512e-14
C44 s:192 0 1.512e-14
C45 s:191 0 1.512e-14
C46 s:190 0 1.512e-14
C47 s:189 0 1.512e-14
C48 s:188 0 1.512e-14
C49 s:53 0 9.66e-15
C50 s:53 0 1.974e-14
C51 s:53 0 6.72e-15
C52 s:33 0 8.400000000000001e-15
C53 s:33 0 8.400000000000001e-15
C54 s:33 0 2.6460000000000002e-14
C55 s:34 0 8.400000000000001e-15
C56 s:34 0 8.400000000000001e-15
C57 s:34 0 2.6460000000000002e-14
C58 s:35 0 8.400000000000001e-15
C59 s:35 0 8.400000000000001e-15
C60 s:35 0 2.6460000000000002e-14
C61 s:36 0 8.400000000000001e-15
C62 s:36 0 8.400000000000001e-15
C63 s:36 0 2.6460000000000002e-14
C64 s:37 0 8.400000000000001e-15
C65 s:37 0 8.400000000000001e-15
C66 s:37 0 2.6460000000000002e-14
C67 s:38 0 8.400000000000001e-15
C68 s:38 0 8.400000000000001e-15
C69 s:38 0 4.9350000000000006e-14
C70 s:32 0 8.400000000000001e-15
C71 s:32 0 8.400000000000001e-15
C72 s:32 0 2.6460000000000002e-14
C73 s:31 0 8.400000000000001e-15
C74 s:31 0 8.400000000000001e-15
C75 s:31 0 2.6460000000000002e-14
C76 s:30 0 8.400000000000001e-15
C77 s:30 0 8.400000000000001e-15
C78 s:30 0 2.6460000000000002e-14
C79 s:29 0 8.400000000000001e-15
C80 s:29 0 8.400000000000001e-15
C81 s:29 0 2.6460000000000002e-14
C82 s:28 0 8.400000000000001e-15
C83 s:28 0 8.400000000000001e-15
C84 s:28 0 2.6460000000000002e-14
C85 s:27 0 8.400000000000001e-15
C86 s:27 0 8.400000000000001e-15
C87 s:27 0 2.6460000000000002e-14
C88 s:26 0 8.400000000000001e-15
C89 s:26 0 8.400000000000001e-15
C90 s:26 0 1.7388e-13
C91 s:12 0 8.400000000000001e-15
C92 s:12 0 8.400000000000001e-15
C93 s:12 0 2.6460000000000002e-14
C94 s:11 0 8.400000000000001e-15
C95 s:11 0 8.400000000000001e-15
C96 s:11 0 2.6460000000000002e-14
C97 s:10 0 8.400000000000001e-15
C98 s:10 0 8.400000000000001e-15
C99 s:10 0 2.6460000000000002e-14
C100 s:9 0 8.400000000000001e-15
C101 s:9 0 8.400000000000001e-15
C102 s:9 0 2.6460000000000002e-14
C103 s:8 0 8.400000000000001e-15
C104 s:8 0 8.400000000000001e-15
C105 s:8 0 2.6460000000000002e-14
C106 s:7 0 8.400000000000001e-15
C107 s:7 0 8.400000000000001e-15
C108 s:7 0 6.72e-15
C109 s:52 0 9.66e-15
C110 s:52 0 9.219000000000001e-14
C111 s:52 0 1.974e-14
C112 s:6 0 8.400000000000001e-15
C113 s:6 0 8.400000000000001e-15
C114 s:6 0 2.6460000000000002e-14
C115 s:5 0 8.400000000000001e-15
C116 s:5 0 8.400000000000001e-15
C117 s:5 0 2.6460000000000002e-14
C118 s:4 0 8.400000000000001e-15
C119 s:4 0 8.400000000000001e-15
C120 s:4 0 2.6460000000000002e-14
C121 s:3 0 8.400000000000001e-15
C122 s:3 0 8.400000000000001e-15
C123 s:3 0 2.6460000000000002e-14
C124 s:2 0 8.400000000000001e-15
C125 s:2 0 8.400000000000001e-15
C126 s:2 0 2.6460000000000002e-14
C127 s:1 0 8.400000000000001e-15
C128 s:1 0 8.400000000000001e-15
C129 s:1 0 2.6460000000000002e-14
C130 s:0 0 8.400000000000001e-15
C131 s:0 0 8.400000000000001e-15
C132 s:0 0 4.9350000000000006e-14
C133 s:54 0 7.56e-15
C134 s:54 0 2.793e-14
C135 s:54 0 4.83e-15
C136 s:20 0 6.93e-15
C137 s:20 0 3.843e-14
C138 s:20 0 3.2760000000000004e-14
C139 s:21 0 6.93e-15
C140 s:21 0 3.843e-14
C141 s:21 0 3.2760000000000004e-14
C142 s:22 0 6.93e-15
C143 s:22 0 3.843e-14
C144 s:22 0 3.2760000000000004e-14
C145 s:23 0 6.93e-15
C146 s:23 0 3.843e-14
C147 s:23 0 3.2760000000000004e-14
C148 s:24 0 6.93e-15
C149 s:24 0 3.843e-14
C150 s:24 0 3.2760000000000004e-14
C151 s:25 0 6.93e-15
C152 s:25 0 3.843e-14
C153 s:180 0 1.512e-14
C154 s:179 0 1.512e-14
C155 s:178 0 1.512e-14
C156 s:177 0 1.512e-14
C157 s:176 0 1.512e-14
C158 s:175 0 1.512e-14
C159 s:19 0 6.93e-15
C160 s:19 0 3.843e-14
C161 s:19 0 3.2760000000000004e-14
C162 s:18 0 6.93e-15
C163 s:18 0 3.843e-14
C164 s:18 0 3.2760000000000004e-14
C165 s:17 0 6.93e-15
C166 s:17 0 3.843e-14
C167 s:17 0 3.2760000000000004e-14
C168 s:16 0 6.93e-15
C169 s:16 0 3.843e-14
C170 s:16 0 3.2760000000000004e-14
C171 s:15 0 6.93e-15
C172 s:15 0 3.843e-14
C173 s:15 0 3.2760000000000004e-14
C174 s:14 0 6.93e-15
C175 s:14 0 3.843e-14
C176 s:14 0 3.2760000000000004e-14
C177 s:13 0 6.93e-15
C178 s:13 0 3.843e-14
C179 s:13 0 8.190000000000001e-15
C180 s:168 0 1.512e-14
C181 s:169 0 1.512e-14
C182 s:170 0 1.512e-14
C183 s:171 0 1.512e-14
C184 s:172 0 1.512e-14
C185 s:173 0 1.512e-14
C186 s:174 0 1.512e-14
C187 s:187 0 1.512e-14
C188 s:186 0 1.512e-14
C189 s:185 0 1.512e-14
C190 s:184 0 1.512e-14
C191 s:183 0 1.512e-14
C192 s:182 0 1.512e-14
C193 s:181 0 1.512e-14


* Net:d0 ----------------


R449 d0 d0:141 3.108
R450 d0 d0:56 2.94
R451 d0 d0:43 2.828
R452 d0 d0:7 4.368
R453 d0:7 d0:142 3.108
R454 d0:7 d0:58 2.94
R455 d0:7 d0:6 4.368
R456 d0:7 d0:8 4.368
R457 d0:8 d0:143 3.108
R458 d0:8 d0:60 2.94
R459 d0:8 d0:9 4.368
R460 d0:9 d0:144 3.108
R461 d0:9 d0:62 2.94
R462 d0:9 d0:10 4.368
R463 d0:10 d0:145 3.108
R464 d0:10 d0:64 2.94
R465 d0:10 d0:11 4.368
R466 d0:11 d0:146 3.108
R467 d0:11 d0:66 2.94
R468 d0:11 d0:12 4.368
R469 d0:12 d0:147 3.108
R470 d0:12 d0:68 2.94
R471 d0:12 d0:129 1.008
R472 d0:147 d0:69 2.016
R473 d0:147 MN0@24:d 14
R474 d0:146 d0:67 2.016
R475 d0:146 MN0@22:d 14
R476 d0:145 d0:65 2.016
R477 d0:145 MN0@20:d 14
R478 d0:144 d0:63 2.016
R479 d0:144 MN0@18:d 14
R480 d0:143 d0:61 2.016
R481 d0:143 MN0@16:d 14
R482 d0:6 d0:141 3.108
R483 d0:6 d0:56 2.94
R484 d0:6 d0:43 2.828
R485 d0:43 d0:82 6.664
R486 d0:43 d0:130 1.008
R487 d0:43 d0:5 1.54
R488 d0:5 d0:140 3.108
R489 d0:5 d0:54 2.94
R490 d0:5 d0:4 4.368
R491 d0:4 d0:139 3.108
R492 d0:4 d0:52 2.94
R493 d0:4 d0:3 4.368
R494 d0:3 d0:138 3.108
R495 d0:3 d0:50 2.94
R496 d0:3 d0:2 4.368
R497 d0:2 d0:137 3.108
R498 d0:2 d0:48 2.94
R499 d0:2 d0:1 4.368
R500 d0:1 d0:136 3.108
R501 d0:1 d0:46 2.94
R502 d0:1 d0:0 4.368
R503 d0:0 d0:135 3.108
R504 d0:0 d0:44 2.94
R505 d0:0 d0:128 1.008
R506 d0:135 d0:45 2.016
R507 d0:135 MN0@0:d 14
R508 d0:136 d0:47 2.016
R509 d0:136 MN0@2:d 14
R510 d0:137 d0:49 2.016
R511 d0:137 MN0@4:d 14
R512 d0:138 d0:51 2.016
R513 d0:138 MN0@6:d 14
R514 d0:139 d0:53 2.016
R515 d0:139 MN0@8:d 14
R516 d0:140 d0:55 2.016
R517 d0:140 MN0@10:d 14
R518 d0:82 d0:19 1.12
R519 d0:19 d0:83 1.12
R520 d0:19 MN0@0:g 342
R521 d0:19 MN0@1:g 342
R522 d0:19 MN0@2:g 342
R523 d0:19 MN0@3:g 342
R524 d0:19 MN0@4:g 342
R525 d0:19 MN0@5:g 342
R526 d0:19 MN0@6:g 342
R527 d0:19 MN0@7:g 342
R528 d0:19 MN0@8:g 342
R529 d0:19 MN0@9:g 342
R530 d0:19 MN0@10:g 342
R531 d0:19 MN0@11:g 342
R532 d0:19 MN0@12:g 342
R533 d0:19 MN0@13:g 342
R534 d0:19 MN0@14:g 342
R535 d0:19 MN0@15:g 342
R536 d0:19 MN0@16:g 342
R537 d0:19 MN0@17:g 342
R538 d0:19 MN0@18:g 342
R539 d0:19 MN0@19:g 342
R540 d0:19 MN0@20:g 342
R541 d0:19 MN0@21:g 342
R542 d0:19 MN0@22:g 342
R543 d0:19 MN0@23:g 342
R544 d0:19 MN0@24:g 342
R545 d0:19 MN1@0:g 342
R546 d0:19 MN1@1:g 342
R547 d0:19 MN1@2:g 342
R548 d0:19 MN1@3:g 342
R549 d0:19 MN1@4:g 342
R550 d0:19 MN1@5:g 342
R551 d0:19 MN1@6:g 342
R552 d0:19 MN1@7:g 342
R553 d0:19 MN1@8:g 342
R554 d0:19 MN1@9:g 342
R555 d0:19 MN1@10:g 342
R556 d0:19 MN1@11:g 342
R557 d0:19 MN1@12:g 342
R558 d0:19 MN1@13:g 342
R559 d0:19 MN1@14:g 342
R560 d0:19 MN1@15:g 342
R561 d0:19 MN1@16:g 342
R562 d0:19 MN1@17:g 342
R563 d0:19 MN1@18:g 342
R564 d0:19 MN1@19:g 342
R565 d0:19 MN1@20:g 342
R566 d0:19 MN1@21:g 342
R567 d0:19 MN1@22:g 342
R568 d0:19 MN1@23:g 342
R569 d0:19 MN1@24:g 342
R570 d0:19 d0:18 3.528
R571 d0:19 MN0@0:g 342
R572 d0:19 MN0@1:g 342
R573 d0:19 MN0@2:g 342
R574 d0:19 MN0@3:g 342
R575 d0:19 MN0@4:g 342
R576 d0:19 MN0@5:g 342
R577 d0:19 MN0@6:g 342
R578 d0:19 MN0@7:g 342
R579 d0:19 MN0@8:g 342
R580 d0:19 MN0@9:g 342
R581 d0:19 MN0@10:g 342
R582 d0:19 MN0@11:g 342
R583 d0:19 MN0@12:g 342
R584 d0:19 MN0@13:g 342
R585 d0:19 MN0@14:g 342
R586 d0:19 MN0@15:g 342
R587 d0:19 MN0@16:g 342
R588 d0:19 MN0@17:g 342
R589 d0:19 MN0@18:g 342
R590 d0:19 MN0@19:g 342
R591 d0:19 MN0@20:g 342
R592 d0:19 MN0@21:g 342
R593 d0:19 MN0@22:g 342
R594 d0:19 MN0@23:g 342
R595 d0:19 MN0@24:g 342
R596 d0:19 MN1@0:g 342
R597 d0:19 MN1@1:g 342
R598 d0:19 MN1@2:g 342
R599 d0:19 MN1@3:g 342
R600 d0:19 MN1@4:g 342
R601 d0:19 MN1@5:g 342
R602 d0:19 MN1@6:g 342
R603 d0:19 MN1@7:g 342
R604 d0:19 MN1@8:g 342
R605 d0:19 MN1@9:g 342
R606 d0:19 MN1@10:g 342
R607 d0:19 MN1@11:g 342
R608 d0:19 MN1@12:g 342
R609 d0:19 MN1@13:g 342
R610 d0:19 MN1@14:g 342
R611 d0:19 MN1@15:g 342
R612 d0:19 MN1@16:g 342
R613 d0:19 MN1@17:g 342
R614 d0:19 MN1@18:g 342
R615 d0:19 MN1@19:g 342
R616 d0:19 MN1@20:g 342
R617 d0:19 MN1@21:g 342
R618 d0:19 MN1@22:g 342
R619 d0:19 MN1@23:g 342
R620 d0:19 MN1@24:g 342
R621 d0:19 d0:41 2.212
R622 d0:19 MN0@0:g 342
R623 d0:19 MN0@1:g 342
R624 d0:19 MN0@2:g 342
R625 d0:19 MN0@3:g 342
R626 d0:19 MN0@4:g 342
R627 d0:19 MN0@5:g 342
R628 d0:19 MN0@6:g 342
R629 d0:19 MN0@7:g 342
R630 d0:19 MN0@8:g 342
R631 d0:19 MN0@9:g 342
R632 d0:19 MN0@10:g 342
R633 d0:19 MN0@11:g 342
R634 d0:19 MN0@12:g 342
R635 d0:19 MN0@13:g 342
R636 d0:19 MN0@14:g 342
R637 d0:19 MN0@15:g 342
R638 d0:19 MN0@16:g 342
R639 d0:19 MN0@17:g 342
R640 d0:19 MN0@18:g 342
R641 d0:19 MN0@19:g 342
R642 d0:19 MN0@20:g 342
R643 d0:19 MN0@21:g 342
R644 d0:19 MN0@22:g 342
R645 d0:19 MN0@23:g 342
R646 d0:19 MN0@24:g 342
R647 d0:19 MN1@0:g 342
R648 d0:19 MN1@1:g 342
R649 d0:19 MN1@2:g 342
R650 d0:19 MN1@3:g 342
R651 d0:19 MN1@4:g 342
R652 d0:19 MN1@5:g 342
R653 d0:19 MN1@6:g 342
R654 d0:19 MN1@7:g 342
R655 d0:19 MN1@8:g 342
R656 d0:19 MN1@9:g 342
R657 d0:19 MN1@10:g 342
R658 d0:19 MN1@11:g 342
R659 d0:19 MN1@12:g 342
R660 d0:19 MN1@13:g 342
R661 d0:19 MN1@14:g 342
R662 d0:19 MN1@15:g 342
R663 d0:19 MN1@16:g 342
R664 d0:19 MN1@17:g 342
R665 d0:19 MN1@18:g 342
R666 d0:19 MN1@19:g 342
R667 d0:19 MN1@20:g 342
R668 d0:19 MN1@21:g 342
R669 d0:19 MN1@22:g 342
R670 d0:19 MN1@23:g 342
R671 d0:19 MN1@24:g 342
R672 d0:41 d0:132 1.008
R673 d0:41 d0:131 1.008
R674 d0:41 d0:20 1.316
R675 d0:20 d0:85 1.12
R676 d0:20 MN0@0:g 342
R677 d0:20 MN0@1:g 342
R678 d0:20 MN0@2:g 342
R679 d0:20 MN0@3:g 342
R680 d0:20 MN0@4:g 342
R681 d0:20 MN0@5:g 342
R682 d0:20 MN0@6:g 342
R683 d0:20 MN0@7:g 342
R684 d0:20 MN0@8:g 342
R685 d0:20 MN0@9:g 342
R686 d0:20 MN0@10:g 342
R687 d0:20 MN0@11:g 342
R688 d0:20 MN0@12:g 342
R689 d0:20 MN0@13:g 342
R690 d0:20 MN0@14:g 342
R691 d0:20 MN0@15:g 342
R692 d0:20 MN0@16:g 342
R693 d0:20 MN0@17:g 342
R694 d0:20 MN0@18:g 342
R695 d0:20 MN0@19:g 342
R696 d0:20 MN0@20:g 342
R697 d0:20 MN0@21:g 342
R698 d0:20 MN0@22:g 342
R699 d0:20 MN0@23:g 342
R700 d0:20 MN0@24:g 342
R701 d0:20 MN1@0:g 342
R702 d0:20 MN1@1:g 342
R703 d0:20 MN1@2:g 342
R704 d0:20 MN1@3:g 342
R705 d0:20 MN1@4:g 342
R706 d0:20 MN1@5:g 342
R707 d0:20 MN1@6:g 342
R708 d0:20 MN1@7:g 342
R709 d0:20 MN1@8:g 342
R710 d0:20 MN1@9:g 342
R711 d0:20 MN1@10:g 342
R712 d0:20 MN1@11:g 342
R713 d0:20 MN1@12:g 342
R714 d0:20 MN1@13:g 342
R715 d0:20 MN1@14:g 342
R716 d0:20 MN1@15:g 342
R717 d0:20 MN1@16:g 342
R718 d0:20 MN1@17:g 342
R719 d0:20 MN1@18:g 342
R720 d0:20 MN1@19:g 342
R721 d0:20 MN1@20:g 342
R722 d0:20 MN1@21:g 342
R723 d0:20 MN1@22:g 342
R724 d0:20 MN1@23:g 342
R725 d0:20 MN1@24:g 342
R726 d0:20 d0:84 1.12
R727 d0:20 MN0@0:g 342
R728 d0:20 MN0@1:g 342
R729 d0:20 MN0@2:g 342
R730 d0:20 MN0@3:g 342
R731 d0:20 MN0@4:g 342
R732 d0:20 MN0@5:g 342
R733 d0:20 MN0@6:g 342
R734 d0:20 MN0@7:g 342
R735 d0:20 MN0@8:g 342
R736 d0:20 MN0@9:g 342
R737 d0:20 MN0@10:g 342
R738 d0:20 MN0@11:g 342
R739 d0:20 MN0@12:g 342
R740 d0:20 MN0@13:g 342
R741 d0:20 MN0@14:g 342
R742 d0:20 MN0@15:g 342
R743 d0:20 MN0@16:g 342
R744 d0:20 MN0@17:g 342
R745 d0:20 MN0@18:g 342
R746 d0:20 MN0@19:g 342
R747 d0:20 MN0@20:g 342
R748 d0:20 MN0@21:g 342
R749 d0:20 MN0@22:g 342
R750 d0:20 MN0@23:g 342
R751 d0:20 MN0@24:g 342
R752 d0:20 MN1@0:g 342
R753 d0:20 MN1@1:g 342
R754 d0:20 MN1@2:g 342
R755 d0:20 MN1@3:g 342
R756 d0:20 MN1@4:g 342
R757 d0:20 MN1@5:g 342
R758 d0:20 MN1@6:g 342
R759 d0:20 MN1@7:g 342
R760 d0:20 MN1@8:g 342
R761 d0:20 MN1@9:g 342
R762 d0:20 MN1@10:g 342
R763 d0:20 MN1@11:g 342
R764 d0:20 MN1@12:g 342
R765 d0:20 MN1@13:g 342
R766 d0:20 MN1@14:g 342
R767 d0:20 MN1@15:g 342
R768 d0:20 MN1@16:g 342
R769 d0:20 MN1@17:g 342
R770 d0:20 MN1@18:g 342
R771 d0:20 MN1@19:g 342
R772 d0:20 MN1@20:g 342
R773 d0:20 MN1@21:g 342
R774 d0:20 MN1@22:g 342
R775 d0:20 MN1@23:g 342
R776 d0:20 MN1@24:g 342
R777 d0:20 d0:21 3.528
R778 d0:20 MN0@0:g 342
R779 d0:20 MN0@1:g 342
R780 d0:20 MN0@2:g 342
R781 d0:20 MN0@3:g 342
R782 d0:20 MN0@4:g 342
R783 d0:20 MN0@5:g 342
R784 d0:20 MN0@6:g 342
R785 d0:20 MN0@7:g 342
R786 d0:20 MN0@8:g 342
R787 d0:20 MN0@9:g 342
R788 d0:20 MN0@10:g 342
R789 d0:20 MN0@11:g 342
R790 d0:20 MN0@12:g 342
R791 d0:20 MN0@13:g 342
R792 d0:20 MN0@14:g 342
R793 d0:20 MN0@15:g 342
R794 d0:20 MN0@16:g 342
R795 d0:20 MN0@17:g 342
R796 d0:20 MN0@18:g 342
R797 d0:20 MN0@19:g 342
R798 d0:20 MN0@20:g 342
R799 d0:20 MN0@21:g 342
R800 d0:20 MN0@22:g 342
R801 d0:20 MN0@23:g 342
R802 d0:20 MN0@24:g 342
R803 d0:20 MN1@0:g 342
R804 d0:20 MN1@1:g 342
R805 d0:20 MN1@2:g 342
R806 d0:20 MN1@3:g 342
R807 d0:20 MN1@4:g 342
R808 d0:20 MN1@5:g 342
R809 d0:20 MN1@6:g 342
R810 d0:20 MN1@7:g 342
R811 d0:20 MN1@8:g 342
R812 d0:20 MN1@9:g 342
R813 d0:20 MN1@10:g 342
R814 d0:20 MN1@11:g 342
R815 d0:20 MN1@12:g 342
R816 d0:20 MN1@13:g 342
R817 d0:20 MN1@14:g 342
R818 d0:20 MN1@15:g 342
R819 d0:20 MN1@16:g 342
R820 d0:20 MN1@17:g 342
R821 d0:20 MN1@18:g 342
R822 d0:20 MN1@19:g 342
R823 d0:20 MN1@20:g 342
R824 d0:20 MN1@21:g 342
R825 d0:20 MN1@22:g 342
R826 d0:20 MN1@23:g 342
R827 d0:20 MN1@24:g 342
R828 d0:21 d0:87 1.12
R829 d0:21 MN0@0:g 342
R830 d0:21 MN0@1:g 342
R831 d0:21 MN0@2:g 342
R832 d0:21 MN0@3:g 342
R833 d0:21 MN0@4:g 342
R834 d0:21 MN0@5:g 342
R835 d0:21 MN0@6:g 342
R836 d0:21 MN0@7:g 342
R837 d0:21 MN0@8:g 342
R838 d0:21 MN0@9:g 342
R839 d0:21 MN0@10:g 342
R840 d0:21 MN0@11:g 342
R841 d0:21 MN0@12:g 342
R842 d0:21 MN0@13:g 342
R843 d0:21 MN0@14:g 342
R844 d0:21 MN0@15:g 342
R845 d0:21 MN0@16:g 342
R846 d0:21 MN0@17:g 342
R847 d0:21 MN0@18:g 342
R848 d0:21 MN0@19:g 342
R849 d0:21 MN0@20:g 342
R850 d0:21 MN0@21:g 342
R851 d0:21 MN0@22:g 342
R852 d0:21 MN0@23:g 342
R853 d0:21 MN0@24:g 342
R854 d0:21 MN1@0:g 342
R855 d0:21 MN1@1:g 342
R856 d0:21 MN1@2:g 342
R857 d0:21 MN1@3:g 342
R858 d0:21 MN1@4:g 342
R859 d0:21 MN1@5:g 342
R860 d0:21 MN1@6:g 342
R861 d0:21 MN1@7:g 342
R862 d0:21 MN1@8:g 342
R863 d0:21 MN1@9:g 342
R864 d0:21 MN1@10:g 342
R865 d0:21 MN1@11:g 342
R866 d0:21 MN1@12:g 342
R867 d0:21 MN1@13:g 342
R868 d0:21 MN1@14:g 342
R869 d0:21 MN1@15:g 342
R870 d0:21 MN1@16:g 342
R871 d0:21 MN1@17:g 342
R872 d0:21 MN1@18:g 342
R873 d0:21 MN1@19:g 342
R874 d0:21 MN1@20:g 342
R875 d0:21 MN1@21:g 342
R876 d0:21 MN1@22:g 342
R877 d0:21 MN1@23:g 342
R878 d0:21 MN1@24:g 342
R879 d0:21 d0:86 1.12
R880 d0:21 MN0@0:g 342
R881 d0:21 MN0@1:g 342
R882 d0:21 MN0@2:g 342
R883 d0:21 MN0@3:g 342
R884 d0:21 MN0@4:g 342
R885 d0:21 MN0@5:g 342
R886 d0:21 MN0@6:g 342
R887 d0:21 MN0@7:g 342
R888 d0:21 MN0@8:g 342
R889 d0:21 MN0@9:g 342
R890 d0:21 MN0@10:g 342
R891 d0:21 MN0@11:g 342
R892 d0:21 MN0@12:g 342
R893 d0:21 MN0@13:g 342
R894 d0:21 MN0@14:g 342
R895 d0:21 MN0@15:g 342
R896 d0:21 MN0@16:g 342
R897 d0:21 MN0@17:g 342
R898 d0:21 MN0@18:g 342
R899 d0:21 MN0@19:g 342
R900 d0:21 MN0@20:g 342
R901 d0:21 MN0@21:g 342
R902 d0:21 MN0@22:g 342
R903 d0:21 MN0@23:g 342
R904 d0:21 MN0@24:g 342
R905 d0:21 MN1@0:g 342
R906 d0:21 MN1@1:g 342
R907 d0:21 MN1@2:g 342
R908 d0:21 MN1@3:g 342
R909 d0:21 MN1@4:g 342
R910 d0:21 MN1@5:g 342
R911 d0:21 MN1@6:g 342
R912 d0:21 MN1@7:g 342
R913 d0:21 MN1@8:g 342
R914 d0:21 MN1@9:g 342
R915 d0:21 MN1@10:g 342
R916 d0:21 MN1@11:g 342
R917 d0:21 MN1@12:g 342
R918 d0:21 MN1@13:g 342
R919 d0:21 MN1@14:g 342
R920 d0:21 MN1@15:g 342
R921 d0:21 MN1@16:g 342
R922 d0:21 MN1@17:g 342
R923 d0:21 MN1@18:g 342
R924 d0:21 MN1@19:g 342
R925 d0:21 MN1@20:g 342
R926 d0:21 MN1@21:g 342
R927 d0:21 MN1@22:g 342
R928 d0:21 MN1@23:g 342
R929 d0:21 MN1@24:g 342
R930 d0:21 d0:22 3.528
R931 d0:21 MN0@0:g 342
R932 d0:21 MN0@1:g 342
R933 d0:21 MN0@2:g 342
R934 d0:21 MN0@3:g 342
R935 d0:21 MN0@4:g 342
R936 d0:21 MN0@5:g 342
R937 d0:21 MN0@6:g 342
R938 d0:21 MN0@7:g 342
R939 d0:21 MN0@8:g 342
R940 d0:21 MN0@9:g 342
R941 d0:21 MN0@10:g 342
R942 d0:21 MN0@11:g 342
R943 d0:21 MN0@12:g 342
R944 d0:21 MN0@13:g 342
R945 d0:21 MN0@14:g 342
R946 d0:21 MN0@15:g 342
R947 d0:21 MN0@16:g 342
R948 d0:21 MN0@17:g 342
R949 d0:21 MN0@18:g 342
R950 d0:21 MN0@19:g 342
R951 d0:21 MN0@20:g 342
R952 d0:21 MN0@21:g 342
R953 d0:21 MN0@22:g 342
R954 d0:21 MN0@23:g 342
R955 d0:21 MN0@24:g 342
R956 d0:21 MN1@0:g 342
R957 d0:21 MN1@1:g 342
R958 d0:21 MN1@2:g 342
R959 d0:21 MN1@3:g 342
R960 d0:21 MN1@4:g 342
R961 d0:21 MN1@5:g 342
R962 d0:21 MN1@6:g 342
R963 d0:21 MN1@7:g 342
R964 d0:21 MN1@8:g 342
R965 d0:21 MN1@9:g 342
R966 d0:21 MN1@10:g 342
R967 d0:21 MN1@11:g 342
R968 d0:21 MN1@12:g 342
R969 d0:21 MN1@13:g 342
R970 d0:21 MN1@14:g 342
R971 d0:21 MN1@15:g 342
R972 d0:21 MN1@16:g 342
R973 d0:21 MN1@17:g 342
R974 d0:21 MN1@18:g 342
R975 d0:21 MN1@19:g 342
R976 d0:21 MN1@20:g 342
R977 d0:21 MN1@21:g 342
R978 d0:21 MN1@22:g 342
R979 d0:21 MN1@23:g 342
R980 d0:21 MN1@24:g 342
R981 d0:22 d0:89 1.12
R982 d0:22 MN0@0:g 342
R983 d0:22 MN0@1:g 342
R984 d0:22 MN0@2:g 342
R985 d0:22 MN0@3:g 342
R986 d0:22 MN0@4:g 342
R987 d0:22 MN0@5:g 342
R988 d0:22 MN0@6:g 342
R989 d0:22 MN0@7:g 342
R990 d0:22 MN0@8:g 342
R991 d0:22 MN0@9:g 342
R992 d0:22 MN0@10:g 342
R993 d0:22 MN0@11:g 342
R994 d0:22 MN0@12:g 342
R995 d0:22 MN0@13:g 342
R996 d0:22 MN0@14:g 342
R997 d0:22 MN0@15:g 342
R998 d0:22 MN0@16:g 342
R999 d0:22 MN0@17:g 342
R1000 d0:22 MN0@18:g 342
R1001 d0:22 MN0@19:g 342
R1002 d0:22 MN0@20:g 342
R1003 d0:22 MN0@21:g 342
R1004 d0:22 MN0@22:g 342
R1005 d0:22 MN0@23:g 342
R1006 d0:22 MN0@24:g 342
R1007 d0:22 MN1@0:g 342
R1008 d0:22 MN1@1:g 342
R1009 d0:22 MN1@2:g 342
R1010 d0:22 MN1@3:g 342
R1011 d0:22 MN1@4:g 342
R1012 d0:22 MN1@5:g 342
R1013 d0:22 MN1@6:g 342
R1014 d0:22 MN1@7:g 342
R1015 d0:22 MN1@8:g 342
R1016 d0:22 MN1@9:g 342
R1017 d0:22 MN1@10:g 342
R1018 d0:22 MN1@11:g 342
R1019 d0:22 MN1@12:g 342
R1020 d0:22 MN1@13:g 342
R1021 d0:22 MN1@14:g 342
R1022 d0:22 MN1@15:g 342
R1023 d0:22 MN1@16:g 342
R1024 d0:22 MN1@17:g 342
R1025 d0:22 MN1@18:g 342
R1026 d0:22 MN1@19:g 342
R1027 d0:22 MN1@20:g 342
R1028 d0:22 MN1@21:g 342
R1029 d0:22 MN1@22:g 342
R1030 d0:22 MN1@23:g 342
R1031 d0:22 MN1@24:g 342
R1032 d0:22 d0:88 1.12
R1033 d0:22 MN0@0:g 342
R1034 d0:22 MN0@1:g 342
R1035 d0:22 MN0@2:g 342
R1036 d0:22 MN0@3:g 342
R1037 d0:22 MN0@4:g 342
R1038 d0:22 MN0@5:g 342
R1039 d0:22 MN0@6:g 342
R1040 d0:22 MN0@7:g 342
R1041 d0:22 MN0@8:g 342
R1042 d0:22 MN0@9:g 342
R1043 d0:22 MN0@10:g 342
R1044 d0:22 MN0@11:g 342
R1045 d0:22 MN0@12:g 342
R1046 d0:22 MN0@13:g 342
R1047 d0:22 MN0@14:g 342
R1048 d0:22 MN0@15:g 342
R1049 d0:22 MN0@16:g 342
R1050 d0:22 MN0@17:g 342
R1051 d0:22 MN0@18:g 342
R1052 d0:22 MN0@19:g 342