*|DSPF	1.5
*|DESIGN	nmos_dp_19x10x1_333_2
*|DATE	"Wed Jun 19 2025"
*|VENDOR	"Mentor Graphics Corporation"
*|PROGRAM	"Calibre xACT"
*|VERSION	"v2020.4_34.17"
*|DIVIDER	|
*|DELIMITER	:
*|BUSBIT	[]
* Corner Name: 12lp_11M_3Mx_4Cx_2Kx_2Gx_LB_nominal_detailed_25
* Nominal Temperature: 25C
* Circuit Temperature: 25C
*

* Integrated TICER reduction is not enabled.
* SHORT DELAY THRESHOLD: 2e-14
* Fill Mode: NG
* PEX REDUCE CC ABSOLUTE : disabled
* PEX REDUCE CC RATIO : disabled
* Delta transform mode : 344834

.subckt nmos_dp_19x10x1_333_2 b d0 d1 g0 g1 s

* Net:b ----------------


R1 b b:4 1.764
R2 b b:5 1.764
R3 b:5 b:21 1.12
R4 b:5 MN0@0:b 14
R5 b:5 b:20 1.12
R6 b:5 MN0@0:b 14
R7 b:5 b:6 3.528
R8 b:5 MN0@0:b 14
R9 b:6 b:23 1.12
R10 b:6 MN0@0:b 14
R11 b:6 b:22 1.12
R12 b:6 MN0@0:b 14
R13 b:6 b:7 3.528
R14 b:6 MN0@0:b 14
R15 b:7 b:25 1.12
R16 b:7 MN0@0:b 14
R17 b:7 b:24 1.12
R18 b:7 MN0@0:b 14
R19 b:7 b:8 3.528
R20 b:7 MN0@0:b 14
R21 b:8 b:27 1.12
R22 b:8 MN0@0:b 14
R23 b:8 b:26 1.12
R24 b:8 MN0@0:b 14
R25 b:8 b:9 3.528
R26 b:8 MN0@0:b 14
R27 b:9 b:31 1.12
R28 b:9 MN0@0:b 14
R29 b:9 b:30 1.12
R30 b:9 MN0@0:b 14
R31 b:9 b:29 6.412
R32 b:9 MN0@0:b 14
R33 b:4 b:19 1.12
R34 b:4 MN0@0:b 14
R35 b:4 b:18 1.12
R36 b:4 MN0@0:b 14
R37 b:4 b:3 3.528
R38 b:4 MN0@0:b 14
R39 b:3 b:17 1.12
R40 b:3 MN0@0:b 14
R41 b:3 b:16 1.12
R42 b:3 MN0@0:b 14
R43 b:3 b:2 3.528
R44 b:3 MN0@0:b 14
R45 b:2 b:15 1.12
R46 b:2 MN0@0:b 14
R47 b:2 b:14 1.12
R48 b:2 MN0@0:b 14
R49 b:2 b:1 3.528
R50 b:2 MN0@0:b 14
R51 b:1 b:13 1.12
R52 b:1 MN0@0:b 14
R53 b:1 b:12 1.12
R54 b:1 MN0@0:b 14
R55 b:1 b:0 3.528
R56 b:1 MN0@0:b 14
R57 b:0 b:11 1.12
R58 b:0 MN0@0:b 14
R59 b:0 b:10 1.12
R60 b:0 MN0@0:b 14
R61 b:0 b:28 6.412
R62 b:0 MN0@0:b 14
R63 MN0@0:b MN0@1:b 0.01
R64 MN0@1:b MN0@2:b 0.01
R65 MN0@2:b MN0@3:b 0.01
R66 MN0@3:b MN0@4:b 0.01
R67 MN0@4:b MN0@5:b 0.01
R68 MN0@5:b MN0@6:b 0.01
R69 MN0@6:b MN0@7:b 0.01
R70 MN0@7:b MN0@8:b 0.01
R71 MN0@8:b MN0@9:b 0.01
R72 MN0@9:b MN1@0:b 0.01
R73 MN1@0:b MN1@1:b 0.01
R74 MN1@1:b MN1@2:b 0.01
R75 MN1@2:b MN1@3:b 0.01
R76 MN1@3:b MN1@4:b 0.01
R77 MN1@4:b MN1@5:b 0.01
R78 MN1@5:b MN1@6:b 0.01
R79 MN1@6:b MN1@7:b 0.01
R80 MN1@7:b MN1@8:b 0.01
R81 MN1@8:b MN1@9:b 0.01
C1 b:5 0 8.400000000000001e-15
C2 b:5 0 8.400000000000001e-15
C3 b:5 0 2.6460000000000002e-14
C4 b:6 0 8.400000000000001e-15
C5 b:6 0 8.400000000000001e-15
C6 b:6 0 2.6460000000000002e-14
C7 b:7 0 8.400000000000001e-15
C8 b:7 0 8.400000000000001e-15
C9 b:7 0 2.6460000000000002e-14
C10 b:8 0 8.400000000000001e-15
C11 b:8 0 8.400000000000001e-15
C12 b:8 0 2.6460000000000002e-14
C13 b:9 0 8.400000000000001e-15
C14 b:9 0 8.400000000000001e-15
C15 b:9 0 4.809e-14
C16 b:4 0 8.400000000000001e-15
C17 b:4 0 8.400000000000001e-15
C18 b:4 0 2.6460000000000002e-14
C19 b:3 0 8.400000000000001e-15
C20 b:3 0 8.400000000000001e-15
C21 b:3 0 2.6460000000000002e-14
C22 b:2 0 8.400000000000001e-15
C23 b:2 0 8.400000000000001e-15
C24 b:2 0 2.6460000000000002e-14
C25 b:1 0 8.400000000000001e-15
C26 b:1 0 8.400000000000001e-15
C27 b:1 0 2.6460000000000002e-14
C28 b:0 0 8.400000000000001e-15
C29 b:0 0 8.400000000000001e-15
C30 b:0 0 4.809e-14


* Net:s ----------------


R82 s s:18 2.184
R83 s s:84 1.512
R84 s s:8 1.092
R85 s s:10 1.092
R86 s:10 s:21 2.184
R87 s:10 s:46 1.008
R88 s:10 s:7 1.092
R89 s:10 s:9 3.276
R90 s:9 s:20 2.184
R91 s:9 MN0@6:s 14
R92 s:9 s:89 1.512
R93 s:9 MN0@6:s 14
R94 s:9 s:11 4.368
R95 s:9 MN0@6:s 14
R96 s:11 s:22 2.184
R97 s:11 MN0@7:s 14
R98 s:11 s:94 1.512
R99 s:11 MN0@7:s 14
R100 s:11 s:12 4.368
R101 s:11 MN0@7:s 14
R102 s:12 s:23 2.184
R103 s:12 MN0@8:s 14
R104 s:12 s:99 1.512
R105 s:12 MN0@8:s 14
R106 s:12 s:13 4.368
R107 s:12 MN0@8:s 14
R108 s:13 s:24 2.184
R109 s:13 MN0@9:s 14
R110 s:13 s:104 1.512
R111 s:13 MN0@9:s 14
R112 s:13 s:14 4.368
R113 s:13 MN0@9:s 14
R114 s:14 s:25 2.184
R115 s:14 MN1@9:s 14
R116 s:14 s:109 1.512
R117 s:14 MN1@9:s 14
R118 s:14 s:31 1.092
R119 s:14 MN1@9:s 14
R120 s:109 s:108 3.528
R121 s:109 MN1@9:s 14
R122 s:108 s:107 3.528
R123 s:108 MN1@9:s 14
R124 s:107 s:106 3.528
R125 s:107 MN1@9:s 14
R126 s:106 s:54 3.948
R127 s:106 MN1@9:s 14
R128 s:25 s:110 3.36
R129 s:25 MN1@9:s 14
R130 s:25 s:24 4.368
R131 s:25 MN1@9:s 14
R132 s:25 s:33 1.092
R133 s:25 MN1@9:s 14
R134 s:24 s:105 3.36
R135 s:24 MN0@9:s 14
R136 s:24 s:23 4.368
R137 s:24 MN0@9:s 14
R138 s:23 s:100 3.36
R139 s:23 MN0@8:s 14
R140 s:23 s:22 4.368
R141 s:23 MN0@8:s 14
R142 s:22 s:95 3.36
R143 s:22 MN0@7:s 14
R144 s:22 s:20 4.368
R145 s:22 MN0@7:s 14
R146 s:20 s:90 3.36
R147 s:20 MN0@6:s 14
R148 s:20 s:21 3.276
R149 s:20 MN0@6:s 14
R150 s:21 s:47 1.008
R151 s:21 s:18 1.092
R152 s:18 s:85 3.36
R153 s:18 MN0@5:s 14
R154 s:18 s:7 2.184
R155 s:18 MN0@5:s 14
R156 s:18 s:19 1.092
R157 s:18 MN0@5:s 14
R158 s:19 s:43 1.008
R159 s:19 s:8 2.184
R160 s:19 s:17 3.276
R161 s:17 s:80 3.36
R162 s:17 MN0@4:s 14
R163 s:17 s:6 2.184
R164 s:17 MN0@4:s 14
R165 s:17 s:16 4.368
R166 s:17 MN0@4:s 14
R167 s:16 s:75 3.36
R168 s:16 MN0@3:s 14
R169 s:16 s:5 2.184
R170 s:16 MN0@3:s 14
R171 s:16 s:15 4.368
R172 s:16 MN0@3:s 14
R173 s:15 s:70 3.36
R174 s:15 MN0@2:s 14
R175 s:15 s:4 2.184
R176 s:15 MN0@2:s 14
R177 s:15 s:3 4.368
R178 s:15 MN0@2:s 14
R179 s:3 s:65 3.36
R180 s:3 MN0@1:s 14
R181 s:3 s:2 2.184
R182 s:3 MN0@1:s 14
R183 s:3 s:1 4.368
R184 s:3 MN0@1:s 14
R185 s:1 s:60 3.36
R186 s:1 MN0@0:s 14
R187 s:1 s:0 2.184
R188 s:1 MN0@0:s 14
R189 s:1 s:32 1.092
R190 s:1 MN0@0:s 14
R191 s:0 s:59 1.512
R192 s:0 MN0@0:s 14
R193 s:0 s:30 1.092
R194 s:0 MN0@0:s 14
R195 s:0 s:2 4.368
R196 s:0 MN0@0:s 14
R197 s:2 s:64 1.512
R198 s:2 MN0@1:s 14
R199 s:2 s:4 4.368
R200 s:2 MN0@1:s 14
R201 s:4 s:69 1.512
R202 s:4 MN0@2:s 14
R203 s:4 s:5 4.368
R204 s:4 MN0@2:s 14
R205 s:5 s:74 1.512
R206 s:5 MN0@3:s 14
R207 s:5 s:6 4.368
R208 s:5 MN0@3:s 14
R209 s:6 s:79 1.512
R210 s:6 MN0@4:s 14
R211 s:6 s:8 3.276
R212 s:6 MN0@4:s 14
R213 s:8 s:42 1.008
R214 s:8 s:7 1.092
R215 s:7 s:84 1.512
R216 s:7 MN0@5:s 14
R217 s:84 s:83 3.528
R218 s:84 MN0@5:s 14
R219 s:83 s:82 3.528
R220 s:83 MN0@5:s 14
R221 s:82 s:81 3.528
R222 s:82 MN0@5:s 14
R223 s:81 s:40 3.948
R224 s:81 MN0@5:s 14
R225 s:79 s:78 3.528
R226 s:79 MN0@4:s 14
R227 s:78 s:77 3.528
R228 s:78 MN0@4:s 14
R229 s:77 s:76 3.528
R230 s:77 MN0@4:s 14
R231 s:76 s:38 3.948
R232 s:76 MN0@4:s 14
R233 s:74 s:73 3.528
R234 s:74 MN0@3:s 14
R235 s:73 s:72 3.528
R236 s:73 MN0@3:s 14
R237 s:72 s:71 3.528
R238 s:72 MN0@3:s 14
R239 s:71 s:36 3.948
R240 s:71 MN0@3:s 14
R241 s:69 s:68 3.528
R242 s:69 MN0@2:s 14
R243 s:68 s:67 3.528
R244 s:68 MN0@2:s 14
R245 s:67 s:66 3.528
R246 s:67 MN0@2:s 14
R247 s:66 s:34 3.948
R248 s:66 MN0@2:s 14
R249 s:64 s:63 3.528
R250 s:64 MN0@1:s 14
R251 s:63 s:62 3.528
R252 s:63 MN0@1:s 14
R253 s:62 s:61 3.528
R254 s:62 MN0@1:s 14
R255 s:61 s:28 3.948
R256 s:61 MN0@1:s 14
R257 s:59 s:58 3.528
R258 s:59 MN0@0:s 14
R259 s:58 s:57 3.528
R260 s:58 MN0@0:s 14
R261 s:57 s:56 3.528
R262 s:57 MN0@0:s 14
R263 s:56 s:26 3.948
R264 s:56 MN0@0:s 14
R265 s:60 s:27 3.948
R266 s:60 MN0@0:s 14
R267 s:65 s:29 3.948
R268 s:65 MN0@1:s 14
R269 s:70 s:35 3.948
R270 s:70 MN0@2:s 14
R271 s:75 s:37 3.948
R272 s:75 MN0@3:s 14
R273 s:80 s:39 3.948
R274 s:80 MN0@4:s 14
R275 s:85 s:41 3.948
R276 s:85 MN0@5:s 14
R277 s:90 s:45 3.948
R278 s:90 MN0@6:s 14
R279 s:95 s:49 3.948
R280 s:95 MN0@7:s 14
R281 s:100 s:51 3.948
R282 s:100 MN0@8:s 14
R283 s:105 s:53 3.948
R284 s:105 MN0@9:s 14
R285 s:110 s:55 3.948
R286 s:110 MN1@9:s 14
R287 s:104 s:103 3.528
R288 s:104 MN0@9:s 14
R289 s:103 s:102 3.528
R290 s:103 MN0@9:s 14
R291 s:102 s:101 3.528
R292 s:102 MN0@9:s 14
R293 s:101 s:52 3.948
R294 s:101 MN0@9:s 14
R295 s:99 s:98 3.528
R296 s:99 MN0@8:s 14
R297 s:98 s:97 3.528
R298 s:98 MN0@8:s 14
R299 s:97 s:96 3.528
R300 s:97 MN0@8:s 14
R301 s:96 s:50 3.948
R302 s:96 MN0@8:s 14
R303 s:94 s:93 3.528
R304 s:94 MN0@7:s 14
R305 s:93 s:92 3.528
R306 s:93 MN0@7:s 14
R307 s:92 s:91 3.528
R308 s:92 MN0@7:s 14
R309 s:91 s:48 3.948
R310 s:91 MN0@7:s 14
R311 s:89 s:88 3.528
R312 s:89 MN0@6:s 14
R313 s:88 s:87 3.528
R314 s:88 MN0@6:s 14
R315 s:87 s:86 3.528
R316 s:87 MN0@6:s 14
R317 s:86 s:44 3.948
R318 s:86 MN0@6:s 14
R319 MN0@1:s MN1@0:s 0.01
R320 MN0@2:s MN1@1:s 0.01
R321 MN0@3:s MN1@2:s 0.01
R322 MN0@4:s MN1@3:s 0.01
R323 MN0@5:s MN1@4:s 0.01
R324 MN0@6:s MN1@5:s 0.01
R325 MN0@7:s MN1@6:s 0.01
R326 MN0@8:s MN1@7:s 0.01
R327 MN0@9:s MN1@8:s 0.01
R328 MN1@9:s MN2@0:s 0.01
C31 s:10 0 1.6380000000000002e-14
C32 s:10 0 7.56e-15
C33 s:10 0 8.190000000000001e-15
C34 s:10 0 2.457e-14
C35 s:9 0 1.6380000000000002e-14
C36 s:9 0 1.134e-14
C37 s:9 0 3.2760000000000004e-14
C38 s:11 0 1.6380000000000002e-14
C39 s:11 0 1.134e-14
C40 s:11 0 3.2760000000000004e-14
C41 s:12 0 1.6380000000000002e-14
C42 s:12 0 1.134e-14
C43 s:12 0 3.2760000000000004e-14
C44 s:13 0 1.6380000000000002e-14
C45 s:13 0 1.134e-14
C46 s:13 0 3.2760000000000004e-14
C47 s:14 0 1.6380000000000002e-14
C48 s:14 0 1.134e-14
C49 s:14 0 8.190000000000001e-15
C50 s:109 0 2.6460000000000002e-14
C51 s:108 0 2.6460000000000002e-14
C52 s:107 0 2.6460000000000002e-14
C53 s:106 0 2.961e-14
C54 s:25 0 2.5200000000000002e-14
C55 s:25 0 3.2760000000000004e-14
C56 s:25 0 8.190000000000001e-15
C57 s:24 0 2.5200000000000002e-14
C58 s:24 0 3.2760000000000004e-14
C59 s:23 0 2.5200000000000002e-14
C60 s:23 0 3.2760000000000004e-14
C61 s:22 0 2.5200000000000002e-14
C62 s:22 0 3.2760000000000004e-14
C63 s:20 0 2.5200000000000002e-14
C64 s:20 0 2.457e-14
C65 s:21 0 7.56e-15
C66 s:21 0 8.190000000000001e-15
C67 s:18 0 2.5200000000000002e-14
C68 s:18 0 1.6380000000000002e-14
C69 s:18 0 8.190000000000001e-15
C70 s:19 0 7.56e-15
C71 s:19 0 1.6380000000000002e-14
C72 s:19 0 2.457e-14
C73 s:17 0 2.5200000000000002e-14
C74 s:17 0 1.6380000000000002e-14
C75 s:17 0 3.2760000000000004e-14
C76 s:16 0 2.5200000000000002e-14
C77 s:16 0 1.6380000000000002e-14
C78 s:16 0 3.2760000000000004e-14
C79 s:15 0 2.5200000000000002e-14
C80 s:15 0 1.6380000000000002e-14
C81 s:15 0 3.2760000000000004e-14
C82 s:3 0 2.5200000000000002e-14
C83 s:3 0 1.6380000000000002e-14
C84 s:3 0 3.2760000000000004e-14
C85 s:1 0 2.5200000000000002e-14
C86 s:1 0 1.6380000000000002e-14
C87 s:1 0 8.190000000000001e-15
C88 s:0 0 1.134e-14
C89 s:0 0 8.190000000000001e-15
C90 s:0 0 3.2760000000000004e-14
C91 s:2 0 1.134e-14
C92 s:2 0 3.2760000000000004e-14
C93 s:4 0 1.134e-14
C94 s:4 0 3.2760000000000004e-14
C95 s:5 0 1.134e-14
C96 s:5 0 3.2760000000000004e-14
C97 s:6 0 1.134e-14
C98 s:6 0 2.457e-14
C99 s:8 0 7.56e-15
C100 s:8 0 8.190000000000001e-15
C101 s:7 0 1.134e-14
C102 s:84 0 2.6460000000000002e-14
C103 s:83 0 2.6460000000000002e-14
C104 s:82 0 2.6460000000000002e-14
C105 s:81 0 2.961e-14
C106 s:79 0 2.6460000000000002e-14
C107 s:78 0 2.6460000000000002e-14
C108 s:77 0 2.6460000000000002e-14
C109 s:76 0 2.961e-14
C110 s:74 0 2.6460000000000002e-14
C111 s:73 0 2.6460000000000002e-14
C112 s:72 0 2.6460000000000002e-14
C113 s:71 0 2.961e-14
C114 s:69 0 2.6460000000000002e-14
C115 s:68 0 2.6460000000000002e-14
C116 s:67 0 2.6460000000000002e-14
C117 s:66 0 2.961e-14
C118 s:64 0 2.6460000000000002e-14
C119 s:63 0 2.6460000000000002e-14
C120 s:62 0 2.6460000000000002e-14
C121 s:61 0 2.961e-14
C122 s:59 0 2.6460000000000002e-14
C123 s:58 0 2.6460000000000002e-14
C124 s:57 0 2.6460000000000002e-14
C125 s:56 0 2.961e-14
C126 s:60 0 2.961e-14
C127 s:65 0 2.961e-14
C128 s:70 0 2.961e-14
C129 s:75 0 2.961e-14
C130 s:80 0 2.961e-14
C131 s:85 0 2.961e-14
C132 s:90 0 2.961e-14
C133 s:95 0 2.961e-14
C134 s:100 0 2.961e-14
C135 s:105 0 2.961e-14
C136 s:110 0 2.961e-14
C137 s:104 0 2.6460000000000002e-14
C138 s:103 0 2.6460000000000002e-14
C139 s:102 0 2.6460000000000002e-14
C140 s:101 0 2.961e-14
C141 s:99 0 2.6460000000000002e-14
C142 s:98 0 2.6460000000000002e-14
C143 s:97 0 2.6460000000000002e-14
C144 s:96 0 2.961e-14
C145 s:94 0 2.6460000000000002e-14
C146 s:93 0 2.6460000000000002e-14
C147 s:92 0 2.6460000000000002e-14
C148 s:91 0 2.961e-14
C149 s:89 0 2.6460000000000002e-14
C150 s:88 0 2.6460000000000002e-14
C151 s:87 0 2.6460000000000002e-14
C152 s:86 0 2.961e-14


* Net:d0 ----------------


R329 d0 d0:10 2.184
R330 d0 d0:12 6.552
R331 d0:12 d0:7 2.184
R332 d0:12 MN0@6:d 14
R333 d0:12 d0:47 3.36
R334 d0:12 MN0@6:d 14
R335 d0:12 d0:13 8.736
R336 d0:12 MN0@6:d 14
R337 d0:13 d0:8 2.184
R338 d0:13 MN0@8:d 14
R339 d0:13 d0:52 3.36
R340 d0:13 MN0@8:d 14
R341 d0:13 d0:21 5.376
R342 d0:13 MN0@8:d 14
R343 d0:52 d0:30 3.948
R344 d0:52 MN0@8:d 14
R345 d0:8 d0:53 1.512
R346 d0:8 MN0@8:d 14
R347 d0:8 d0:7 8.736
R348 d0:8 MN0@8:d 14
R349 d0:8 d0:19 5.376
R350 d0:8 MN0@8:d 14
R351 d0:7 d0:48 1.512
R352 d0:7 MN0@6:d 14
R353 d0:7 d0:5 8.736
R354 d0:7 MN0@6:d 14
R355 d0:5 d0:43 1.512
R356 d0:5 MN0@4:d 14
R357 d0:5 d0:10 2.184
R358 d0:5 MN0@4:d 14
R359 d0:5 d0:6 3.276
R360 d0:5 MN0@4:d 14
R361 d0:6 d0:27 1.008
R362 d0:6 d0:11 2.184
R363 d0:6 d0:4 2.184
R364 d0:4 d0:23 1.008
R365 d0:4 d0:9 2.184
R366 d0:4 d0:2 3.276
R367 d0:2 d0:38 1.512
R368 d0:2 MN0@2:d 14
R369 d0:2 d0:3 2.184
R370 d0:2 MN0@2:d 14
R371 d0:2 d0:0 8.736
R372 d0:2 MN0@2:d 14
R373 d0:0 d0:33 1.512
R374 d0:0 MN0@0:d 14
R375 d0:0 d0:1 2.184
R376 d0:0 MN0@0:d 14
R377 d0:0 d0:18 1.008
R378 d0:0 MN0@0:d 14
R379 d0:1 d0:32 3.36
R380 d0:1 MN0@0:d 14
R381 d0:1 d0:20 1.008
R382 d0:1 MN0@0:d 14
R383 d0:1 d0:3 8.736
R384 d0:1 MN0@0:d 14
R385 d0:3 d0:37 3.36
R386 d0:3 MN0@2:d 14
R387 d0:3 d0:9 3.276
R388 d0:3 MN0@2:d 14
R389 d0:9 d0:22 1.008
R390 d0:9 d0:11 2.184
R391 d0:11 d0:26 1.008
R392 d0:11 d0:10 3.276
R393 d0:10 d0:42 3.36
R394 d0:10 MN0@4:d 14
R395 d0:42 d0:24 3.948
R396 d0:42 MN0@4:d 14
R397 d0:37 d0:16 3.948
R398 d0:37 MN0@2:d 14
R399 d0:32 d0:14 3.948
R400 d0:32 MN0@0:d 14
R401 d0:33 d0:34 3.528
R402 d0:33 MN0@0:d 14
R403 d0:34 d0:35 3.528
R404 d0:34 MN0@0:d 14
R405 d0:35 d0:36 3.528
R406 d0:35 MN0@0:d 14
R407 d0:36 d0:15 3.948
R408 d0:36 MN0@0:d 14
R409 d0:38 d0:39 3.528
R410 d0:38 MN0@2:d 14
R411 d0:39 d0:40 3.528
R412 d0:39 MN0@2:d 14
R413 d0:40 d0:41 3.528
R414 d0:40 MN0@2:d 14
R415 d0:41 d0:17 3.948
R416 d0:41 MN0@2:d 14
R417 d0:43 d0:44 3.528
R418 d0:43 MN0@4:d 14
R419 d0:44 d0:45 3.528
R420 d0:44 MN0@4:d 14
R421 d0:45 d0:46 3.528
R422 d0:45 MN0@4:d 14
R423 d0:46 d0:25 3.948
R424 d0:46 MN0@4:d 14
R425 d0:48 d0:49 3.528
R426 d0:48 MN0@6:d 14
R427 d0:49 d0:50 3.528
R428 d0:49 MN0@6:d 14
R429 d0:50 d0:51 3.528
R430 d0:50 MN0@6:d 14
R431 d0:51 d0:29 3.948
R432 d0:51 MN0@6:d 14
R433 d0:53 d0:54 3.528
R434 d0:53 MN0@8:d 14
R435 d0:54 d0:55 3.528
R436 d0:54 MN0@8:d 14
R437 d0:55 d0:56 3.528
R438 d0:55 MN0@8:d 14
R439 d0:56 d0:31 3.948
R440 d0:56 MN0@8:d 14
R441 d0:47 d0:28 3.948
R442 d0:47 MN0@6:d 14
R443 MN0@0:d MN0@1:d 0.01
R444 MN0@2:d MN0@3:d 0.01
R445 MN0@4:d MN0@5:d 0.01
R446 MN0@6:d MN0@7:d 0.01
R447 MN0@8:d MN0@9:d 0.01
C153 d0:12 0 1.6380000000000002e-14
C154 d0:12 0 2.5200000000000002e-14
C155 d0:12 0 6.552000000000001e-14
C156 d0:13 0 1.6380000000000002e-14
C157 d0:13 0 2.5200000000000002e-14
C158 d0:13 0 4.032e-14
C159 d0:52 0 2.961e-14
C160 d0:8 0 1.134e-14
C161 d0:8 0 6.552000000000001e-14
C162 d0:8 0 4.032e-14
C163 d0:7 0 1.134e-14
C164 d0:7 0 6.552000000000001e-14
C165 d0:5 0 1.134e-14
C166 d0:5 0 1.6380000000000002e-14
C167 d0:5 0 2.457e-14
C168 d0:6 0 7.56e-15
C169 d0:6 0 1.6380000000000002e-14
C170 d0:6 0 1.6380000000000002e-14
C171 d0:4 0 7.56e-15
C172 d0:4 0 1.6380000000000002e-14
C173 d0:4 0 2.457e-14
C174 d0:2 0 1.134e-14
C175 d0:2 0 1.6380000000000002e-14
C176 d0:2 0 6.552000000000001e-14
C177 d0:0 0 1.134e-14
C178 d0:0 0 1.6380000000000002e-14
C179 d0:0 0 7.56e-15
C180 d0:1 0 2.5200000000000002e-14
C181 d0:1 0 7.56e-15
C182 d0:1 0 6.552000000000001e-14
C183 d0:3 0 2.5200000000000002e-14
C184 d0:3 0 2.457e-14
C185 d0:9 0 7.56e-15
C186 d0:9 0 1.6380000000000002e-14
C187 d0:11 0 7.56e-15
C188 d0:11 0 2.457e-14
C189 d0:10 0 2.5200000000000002e-14
C190 d0:42 0 2.961e-14
C191 d0:37 0 2.961e-14
C192 d0:32 0 2.961e-14
C193 d0:33 0 2.6460000000000002e-14
C194 d0:34 0 2.6460000000000002e-14
C195 d0:35 0 2.6460000000000002e-14
C196 d0:36 0 2.961e-14
C197 d0:38 0 2.6460000000000002e-14
C198 d0:39 0 2.6460000000000002e-14
C199 d0:40 0 2.6460000000000002e-14
C200 d0:41 0 2.961e-14
C201 d0:43 0 2.6460000000000002e-14
C202 d0:44 0 2.6460000000000002e-14
C203 d0:45 0 2.6460000000000002e-14
C204 d0:46 0 2.961e-14
C205 d0:48 0 2.6460000000000002e-14
C206 d0:49 0 2.6460000000000002e-14
C207 d0:50 0 2.6460000000000002e-14
C208 d0:51 0 2.961e-14
C209 d0:53 0 2.6460000000000002e-14
C210 d0:54 0 2.6460000000000002e-14
C211 d0:55 0 2.6460000000000002e-14
C212 d0:56 0 2.961e-14
C213 d0:47 0 2.961e-14


* Net:d1 ----------------


R448 d1 d1:8 6.552
R449 d1 d1:9 2.184
R450 d1:9 d1:3 2.184
R451 d1:9 MN1@4:d 14
R452 d1:9 d1:46 0.672
R453 d1:9 MN1@4:d 14
R454 d1:9 d1:10 3.276
R455 d1:9 MN1@4:d 14
R456 d1:10 d1:4 2.184
R457 d1:10 d1:24 1.008
R458 d1:10 d1:13 2.184
R459 d1:13 d1:7 2.184
R460 d1:13 d1:30 1.008
R461 d1:13 d1:11 3.276
R462 d1:11 d1:5 2.184
R463 d1:11 MN1@6:d 14
R464 d1:11 d1:52 0.672
R465 d1:11 MN1@6:d 14
R466 d1:11 d1:12 8.736
R467 d1:11 MN1@6:d 14
R468 d1:12 d1:6 2.184
R469 d1:12 MN1@8:d 14
R470 d1:12 d1:58 0.672
R471 d1:12 MN1@8:d 14
R472 d1:12 d1:19 1.008
R473 d1:12 MN1@8:d 14
R474 d1:58 d1:57 3.528
R475 d1:58 MN1@8:d 14
R476 d1:57 d1:56 3.528
R477 d1:57 MN1@8:d 14
R478 d1:56 d1:28 3.948
R479 d1:56 MN1@8:d 14
R480 d1:6 d1:59 0.672
R481 d1:6 MN1@8:d 14
R482 d1:6 d1:5 8.736
R483 d1:6 MN1@8:d 14
R484 d1:6 d1:17 1.008
R485 d1:6 MN1@8:d 14
R486 d1:5 d1:53 0.672
R487 d1:5 MN1@6:d 14
R488 d1:5 d1:7 3.276
R489 d1:5 MN1@6:d 14
R490 d1:7 d1:31 1.008
R491 d1:7 d1:4 2.184
R492 d1:4 d1:25 1.008
R493 d1:4 d1:3 3.276
R494 d1:3 d1:47 0.672
R495 d1:3 MN1@4:d 14
R496 d1:3 d1:2 8.736
R497 d1:3 MN1@4:d 14
R498 d1:2 d1:41 0.672
R499 d1:2 MN1@2:d 14
R500 d1:2 d1:8 2.184
R501 d1:2 MN1@2:d 14
R502 d1:2 d1:0 8.736
R503 d1:2 MN1@2:d 14
R504 d1:0 d1:35 0.672
R505 d1:0 MN1@0:d 14
R506 d1:0 d1:1 2.184
R507 d1:0 MN1@0:d 14
R508 d1:0 d1:16 5.376
R509 d1:0 MN1@0:d 14
R510 d1:1 d1:34 0.672
R511 d1:1 MN1@0:d 14
R512 d1:1 d1:18 5.376
R513 d1:1 MN1@0:d 14
R514 d1:1 d1:8 8.736
R515 d1:1 MN1@0:d 14
R516 d1:8 d1:40 0.672
R517 d1:8 MN1@2:d 14
R518 d1:40 d1:39 3.528
R519 d1:40 MN1@2:d 14
R520 d1:39 d1:38 3.528
R521 d1:39 MN1@2:d 14
R522 d1:38 d1:20 3.948
R523 d1:38 MN1@2:d 14
R524 d1:34 d1:33 3.528
R525 d1:34 MN1@0:d 14
R526 d1:33 d1:32 3.528
R527 d1:33 MN1@0:d 14
R528 d1:32 d1:14 3.948
R529 d1:32 MN1@0:d 14
R530 d1:35 d1:36 3.528
R531 d1:35 MN1@0:d 14
R532 d1:36 d1:37 3.528
R533 d1:36 MN1@0:d 14
R534 d1:37 d1:15 3.948
R535 d1:37 MN1@0:d 14
R536 d1:41 d1:42 3.528
R537 d1:41 MN1@2:d 14
R538 d1:42 d1:43 3.528
R539 d1:42 MN1@2:d 14
R540 d1:43 d1:21 3.948
R541 d1:43 MN1@2:d 14
R542 d1:47 d1:48 3.528
R543 d1:47 MN1@4:d 14
R544 d1:48 d1:49 3.528
R545 d1:48 MN1@4:d 14
R546 d1:49 d1:23 3.948
R547 d1:49 MN1@4:d 14
R548 d1:53 d1:54 3.528
R549 d1:53 MN1@6:d 14
R550 d1:54 d1:55 3.528
R551 d1:54 MN1@6:d 14
R552 d1:55 d1:27 3.948
R553 d1:55 MN1@6:d 14
R554 d1:59 d1:60 3.528
R555 d1:59 MN1@8:d 14
R556 d1:60 d1:61 3.528
R557 d1:60 MN1@8:d 14
R558 d1:61 d1:29 3.948
R559 d1:61 MN1@8:d 14
R560 d1:52 d1:51 3.528
R561 d1:52 MN1@6:d 14
R562 d1:51 d1:50 3.528
R563 d1:51 MN1@6:d 14
R564 d1:50 d1:26 3.948
R565 d1:50 MN1@6:d 14
R566 d1:46 d1:45 3.528
R567 d1:46 MN1@4:d 14
R568 d1:45 d1:44 3.528
R569 d1:45 MN1@4:d 14
R570 d1:44 d1:22 3.948
R571 d1:44 MN1@4:d 14
R572 MN1@0:d MN1@1:d 0.01
R573 MN1@2:d MN1@3:d 0.01
R574 MN1@4:d MN1@5:d 0.01
R575 MN1@6:d MN1@7:d 0.01
R576 MN1@8:d MN1@9:d 0.01
C214 d1:9 0 1.6380000000000002e-14
C215 d1:9 0 5.04e-15
C216 d1:9 0 2.457e-14
C217 d1:10 0 1.6380000000000002e-14
C218 d1:10 0 7.56e-15
C219 d1:10 0 1.6380000000000002e-14
C220 d1:13 0 1.6380000000000002e-14
C221 d1:13 0 7.56e-15
C222 d1:13 0 2.457e-14
C223 d1:11 0 1.6380000000000002e-14
C224 d1:11 0 5.04e-15
C225 d1:11 0 6.552000000000001e-14
C226 d1:12 0 1.6380000000000002e-14
C227 d1:12 0 5.04e-15
C228 d1:12 0 7.56e-15
C229 d1:58 0 2.6460000000000002e-14
C230 d1:57 0 2.6460000000000002e-14
C231 d1:56 0 2.961e-14
C232 d1:6 0 5.04e-15
C233 d1:6 0 6.552000000000001e-14
C234 d1:6 0 7.56e-15
C235 d1:5 0 5.04e-15
C236 d1:5 0 2.457e-14
C237 d1:7 0 7.56e-15
C238 d1:7 0 1.6380000000000002e-14
C239 d1:4 0 7.56e-15
C240 d1:4 0 2.457e-14
C241 d1:3 0 5.04e-15
C242 d1:3 0 6.552000000000001e-14
C243 d1:2 0 5.04e-15
C244 d1:2 0 1.6380000000000002e-14
C245 d1:2 0 6.552000000000001e-14
C246 d1:0 0 5.04e-15
C247 d1:0 0 1.6380000000000002e-14
C248 d1:0 0 4.032e-14
C249 d1:1 0 5.04e-15
C250 d1:1 0 4.032e-14
C251 d1:1 0 6.552000000000001e-14
C252 d1:8 0 5.04e-15
C253 d1:40 0 2.6460000000000002e-14
C254 d1:39 0 2.6460000000000002e-14
C255 d1:38 0 2.961e-14
C256 d1:34 0 2.6460000000000002e-14
C257 d1:33 0 2.6460000000000002e-14
C258 d1:32 0 2.961e-14
C259 d1:35 0 2.6460000000000002e-14
C260 d1:36 0 2.6460000000000002e-14
C261 d1:37 0 2.961e-14
C262 d1:41 0 2.6460000000000002e-14
C263 d1:42 0 2.6460000000000002e-14
C264 d1:43 0 2.961e-14
C265 d1:47 0 2.6460000000000002e-14
C266 d1:48 0 2.6460000000000002e-14
C267 d1:49 0 2.961e-14
C268 d1:53 0 2.6460000000000002e-14
C269 d1:54 0 2.6460000000000002e-14
C270 d1:55 0 2.961e-14
C271 d1:59 0 2.6460000000000002e-14
C272 d1:60 0 2.6460000000000002e-14
C273 d1:61 0 2.961e-14
C274 d1:52 0 2.6460000000000002e-14
C275 d1:51 0 2.6460000000000002e-14
C276 d1:50 0 2.961e-14
C277 d1:46 0 2.6460000000000002e-14
C278 d1:45 0 2.6460000000000002e-14
C279 d1:44 0 2.961e-14


* Net:g0 ----------------


R577 g0 g0:1 2.184
R578 g0 g0:4 3.276
R579 g0:4 g0:17 1.036
R580 g0:4 g0:16 1.008
R581 g0:4 g0:2 3.276
R582 g0:2 g0:11 1.12
R583 g0:2 MN0@0:g 342
R584 g0:2 MN0@1:g 342
R585 g0:2 MN0@2:g 342
R586 g0:2 MN0@3:g 342
R587 g0:2 MN0@4:g 342
R588 g0:2 MN0@5:g 342
R589 g0:2 MN0@6:g 342
R590 g0:2 MN0@7:g 342
R591 g0:2 MN0@8:g 342
R592 g0:2 MN0@9:g 342
R593 g0:2 g0:10 1.12
R594 g0:2 MN0@0:g 342
R595 g0:2 MN0@1:g 342
R596 g0:2 MN0@2:g 342
R597 g0:2 MN0@3:g 342
R598 g0:2 MN0@4:g 342
R599 g0:2 MN0@5:g 342
R600 g0:2 MN0@6:g 342
R601 g0:2 MN0@7:g 342
R602 g0:2 MN0@8:g 342
R603 g0:2 MN0@9:g 342
R604 g0:2 g0:3 8.736
R605 g0:2 MN0@0:g 342
R606 g0:2 MN0@1:g 342
R607 g0:2 MN0@2:g 342
R608 g0:2 MN0@3:g 342
R609 g0:2 MN0@4:g 342
R610 g0:2 MN0@5:g 342
R611 g0:2 MN0@6:g 342
R612 g0:2 MN0@7:g 342
R613 g0:2 MN0@8:g 342
R614 g0:2 MN0@9:g 342
R615 g0:3 g0:13 1.12
R616 g0:3 MN0@0:g 342
R617 g0:3 MN0@1:g 342
R618 g0:3 MN0@2:g 342
R619 g0:3 MN0@3:g 342
R620 g0:3 MN0@4:g 342
R621 g0:3 MN0@5:g 342
R622 g0:3 MN0@6:g 342
R623 g0:3 MN0@7:g 342
R624 g0:3 MN0@8:g 342
R625 g0:3 MN0@9:g 342
R626 g0:3 g0:12 1.12
R627 g0:3 MN0@0:g 342
R628 g0:3 MN0@1:g 342
R629 g0:3 MN0@2:g 342
R630 g0:3 MN0@3:g 342
R631 g0:3 MN0@4:g 342
R632 g0:3 MN0@5:g 342
R633 g0:3 MN0@6:g 342
R634 g0:3 MN0@7:g 342
R635 g0:3 MN0@8:g 342
R636 g0:3 MN0@9:g 342
R637 g0:3 g0:15 5.544
R638 g0:3 MN0@0:g 342
R639 g0:3 MN0@1:g 342
R640 g0:3 MN0@2:g 342
R641 g0:3 MN0@3:g 342
R642 g0:3 MN0@4:g 342
R643 g0:3 MN0@5:g 342
R644 g0:3 MN0@6:g 342
R645 g0:3 MN0@7:g 342
R646 g0:3 MN0@8:g 342
R647 g0:3 MN0@9:g 342
R648 g0:1 g0:9 1.12
R649 g0:1 MN0@0:g 342
R650 g0:1 MN0@1:g 342
R651 g0:1 MN0@2:g 342
R652 g0:1 MN0@3:g 342
R653 g0:1 MN0@4:g 342
R654 g0:1 MN0@5:g 342
R655 g0:1 MN0@6:g 342
R656 g0:1 MN0@7:g 342
R657 g0:1 MN0@8:g 342
R658 g0:1 MN0@9:g 342
R659 g0:1 g0:8 1.12
R660 g0:1 MN0@0:g 342
R661 g0:1 MN0@1:g 342
R662 g0:1 MN0@2:g 342
R663 g0:1 MN0@3:g 342
R664 g0:1 MN0@4:g 342
R665 g0:1 MN0@5:g 342
R666 g0:1 MN0@6:g 342
R667 g0:1 MN0@7:g 342
R668 g0:1 MN0@8:g 342
R669 g0:1 MN0@9:g 342
R670 g0:1 g0:0 8.736
R671 g0:1 MN0@0:g 342
R672 g0:1 MN0@1:g 342
R673 g0:1 MN0@2:g 342
R674 g0:1 MN0@3:g 342
R675 g0:1 MN0@4:g 342
R676 g0:1 MN0@5:g 342
R677 g0:1 MN0@6:g 342
R678 g0:1 MN0@7:g 342
R679 g0:1 MN0@8:g 342
R680 g0:1 MN0@9:g 342
R681 g0:0 g0:7 1.12
R682 g0:0 MN0@0:g 342
R683 g0:0 MN0@1:g 342
R684 g0:0 MN0@2:g 342
R685 g0:0 MN0@3:g 342
R686 g0:0 MN0@4:g 342
R687 g0:0 MN0@5:g 342
R688 g0:0 MN0@6:g 342
R689 g0:0 MN0@7:g 342
R690 g0:0 MN0@8:g 342
R691 g0:0 MN0@9:g 342
R692 g0:0 g0:6 1.12
R693 g0:0 MN0@0:g 342
R694 g0:0 MN0@1:g 342
R695 g0:0 MN0@2:g 342
R696 g0:0 MN0@3:g 342
R697 g0:0 MN0@4:g 342
R698 g0:0 MN0@5:g 342
R699 g0:0 MN0@6:g 342
R700 g0:0 MN0@7:g 342
R701 g0:0 MN0@8:g 342
R702 g0:0 MN0@9:g 342
R703 g0:0 g0:5 8.736
R704 g0:0 MN0@0:g 342
R705 g0:0 MN0@1:g 342
R706 g0:0 MN0@2:g 342
R707 g0:0 MN0@3:g 342
R708 g0:0 MN0@4:g 342
R709 g0:0 MN0@5:g 342
R710 g0:0 MN0@6:g 342
R711 g0:0 MN0@7:g 342
R712 g0:0 MN0@8:g 342
R713 g0:0 MN0@9:g 342
R714 g0:5 g0:19 1.12
R715 g0:5 MN0@0:g 342
R716 g0:5 MN0@1:g 342
R717 g0:5 MN0@2:g 342
R718 g0:5 MN0@3:g 342
R719 g0:5 MN0@4:g 342
R720 g0:5 MN0@5:g 342
R721 g0:5 MN0@6:g 342
R722 g0:5 MN0@7:g 342
R723 g0:5 MN0@8:g 342
R724 g0:5 MN0@9:g 342
R725 g0:5 g0:18 1.12
R726 g0:5 MN0@0:g 342
R727 g0:5 MN0@1:g 342
R728 g0:5 MN0@2:g 342
R729 g0:5 MN0@3:g 342
R730 g0:5 MN0@4:g 342
R731 g0:5 MN0@5:g 342
R732 g0:5 MN0@6:g 342
R733 g0:5 MN0@7:g 342
R734 g0:5 MN0@8:g 342
R735 g0:5 MN0@9:g 342
R736 g0:5 g0:14 1.176
R737 g0:5 MN0@0:g 342
R738 g0:5 MN0@1:g 342
R739 g0:5 MN0@2:g 342
R740 g0:5 MN0@3:g 342
R741 g0:5 MN0@4:g 342
R742 g0:5 MN0@5:g 342
R743 g0:5 MN0@6:g 342
R744 g0:5 MN0@7:g 342
R745 g0:5 MN0@8:g 342
R746 g0:5 MN0@9:g 342
C280 g0:4 0 7.77e-15
C281 g0:4 0 7.56e-15
C282 g0:4 0 2.457e-14
C283 g0:2 0 8.400000000000001e-15
C284 g0:2 0 8.400000000000001e-15
C285 g0:2 0 6.552000000000001e-14
C286 g0:3 0 8.400000000000001e-15
C287 g0:3 0 8.400000000000001e-15
C288 g0:3 0 4.1580000000000004e-14
C289 g0:1 0 8.400000000000001e-15
C290 g0:1 0 8.400000000000001e-15
C291 g0:1 0 6.552000000000001e-14
C292 g0:0 0 8.400000000000001e-15
C293 g0:0 0 8.400000000000001e-15
C294 g0:0 0 6.552000000000001e-14
C295 g0:5 0 8.400000000000001e-15
C296 g0:5 0 8.400000000000001e-15
C297 g0:5 0 8.82e-15


* Net:g1 ----------------


R747 g1 g1:5 3.276
R748 g1 g1:2 2.184
R749 g1:2 g1:11 1.12
R750 g1:2 MN1@0:g 342
R751 g1:2 MN1@1:g 342
R752 g1:2 MN1@2:g 342
R753 g1:2 MN1@3:g 342
R754 g1:2 MN1@4:g 342
R755 g1:2 MN1@5:g 342
R756 g1:2 MN1@6:g 342
R757 g1:2 MN1@7:g 342
R758 g1:2 MN1@8:g 342
R759 g1:2 MN1@9:g 342
R760 g1:2 g1:10 1.12
R761 g1:2 MN1@0:g 342
R762 g1:2 MN1@1:g 342
R763 g1:2 MN1@2:g 342
R764 g1:2 MN1@3:g 342
R765 g1:2 MN1@4:g 342
R766 g1:2 MN1@5:g 342
R767 g1:2 MN1@6:g 342
R768 g1:2 MN1@7:g 342
R769 g1:2 MN1@8:g 342
R770 g1:2 MN1@9:g 342
R771 g1:2 g1:3 8.736
R772 g1:2 MN1@0:g 342
R773 g1:2 MN1@1:g 342
R774 g1:2 MN1@2:g 342
R775 g1:2 MN1@3:g 342
R776 g1:2 MN1@4:g 342
R777 g1:2 MN1@5:g 342
R778 g1:2 MN1@6:g 342
R779 g1:2 MN1@7:g 342
R780 g1:2 MN1@8:g 342
R781 g1:2 MN1@9:g 342
R782 g1:3 g1:13 1.12
R783 g1:3 MN1@0:g 342
R784 g1:3 MN1@1:g 342
R785 g1:3 MN1@2:g 342
R786 g1:3 MN1@3:g 342
R787 g1:3 MN1@4:g 342
R788 g1:3 MN1@5:g 342
R789 g1:3 MN1@6:g 342
R790 g1:3 MN1@7:g 342
R791 g1:3 MN1@8:g 342
R792 g1:3 MN1@9:g 342
R793 g1:3 g1:12 1.12
R794 g1:3 MN1@0:g 342
R795 g1:3 MN1@1:g 342
R796 g1:3 MN1@2:g 342
R797 g1:3 MN1@3:g 342
R798 g1:3 MN1@4:g 342
R799 g1:3 MN1@5:g 342
R800 g1:3 MN1@6:g 342
R801 g1:3 MN1@7:g 342
R802 g1:3 MN1@8:g 342
R803 g1:3 MN1@9:g 342
R804 g1:3 g1:4 8.736
R805 g1:3 MN1@0:g 342
R806 g1:3 MN1@1:g 342
R807 g1:3 MN1@2:g 342
R808 g1:3 MN1@3:g 342
R809 g1:3 MN1@4:g 342
R810 g1:3 MN1@5:g 342
R811 g1:3 MN1@6:g 342
R812 g1:3 MN1@7:g 342
R813 g1:3 MN1@8:g 342
R814 g1:3 MN1@9:g 342
R815 g1:4 g1:15 1.12
R816 g1:4 MN1@0:g 342
R817 g1:4 MN1@1:g 342
R818 g1:4 MN1@2:g 342
R819 g1:4 MN1@3:g 342
R820 g1:4 MN1@4:g 342
R821 g1:4 MN1@5:g 342
R822 g1:4 MN1@6:g 342
R823 g1:4 MN1@7:g 342
R824 g1:4 MN1@8:g 342
R825 g1:4 MN1@9:g 342
R826 g1:4 g1:14 1.12
R827 g1:4 MN1@0:g 342
R828 g1:4 MN1@1:g 342
R829 g1:4 MN1@2:g 342
R830 g1:4 MN1@3:g 342
R831 g1:4 MN1@4:g 342
R832 g1:4 MN1@5:g 342
R833 g1:4 MN1@6:g 342
R834 g1:4 MN1@7:g 342
R835 g1:4 MN1@8:g 342
R836 g1:4 MN1@9:g 342
R837 g1:4 g1:17 1.176
R838 g1:4 MN1@0:g 342
R839 g1:4 MN1@1:g 342
R840 g1:4 MN1@2:g 342
R841 g1:4 MN1@3:g 342
R842 g1:4 MN1@4:g 342
R843 g1:4 MN1@5:g 342
R844 g1:4 MN1@6:g 342
R845 g1:4 MN1@7:g 342
R846 g1:4 MN1@8:g 342
R847 g1:4 MN1@9:g 342
R848 g1:5 g1:19 1.036
R849 g1:5 g1:18 1.008
R850 g1:5 g1:1 3.276
R851 g1:1 g1:9 1.12
R852 g1:1 MN1@0:g 342
R853 g1:1 MN1@1:g 342
R854 g1:1 MN1@2:g 342
R855 g1:1 MN1@3:g 342
R856 g1:1 MN1@4:g 342
R857 g1:1 MN1@5:g 342
R858 g1:1 MN1@6:g 342
R859 g1:1 MN1@7:g 342
R860 g1:1 MN1@8:g 342
R861 g1:1 MN1@9:g 342
R862 g1:1 g1:8 1.12
R863 g1:1 MN1@0:g 342
R864 g1:1 MN1@1:g 342
R865 g1:1 MN1@2:g 342
R866 g1:1 MN1@3:g 342
R867 g1:1 MN1@4:g 342
R868 g1:1 MN1@5:g 342
R869 g1:1 MN1@6:g 342
R870 g1:1 MN1@7:g 342
R871 g1:1 MN1@8:g 342
R872 g1:1 MN1@9:g 342
R873 g1:1 g1:0 8.736
R874 g1:1 MN1@0:g 342
R875 g1:1 MN1@1:g 342
R876 g1:1 MN1@2:g 342
R877 g1:1 MN1@3:g 342
R878 g1:1 MN1@4:g 342
R879 g1:1 MN1@5:g 342
R880 g1:1 MN1@6:g 342
R881 g1:1 MN1@7:g 342
R882 g1:1 MN1@8:g 342
R883 g1:1 MN1@9:g 342
R884 g1:0 g1:7 1.12
R885 g1:0 MN1@0:g 342
R886 g1:0 MN1@1:g 342
R887 g1:0 MN1@2:g 342
R888 g1:0 MN1@3:g 342
R889 g1:0 MN1@4:g 342
R890 g1:0 MN1@5:g 342
R891 g1:0 MN1@6:g 342
R892 g1:0 MN1@7:g 342
R893 g1:0 MN1@8:g 342
R894 g1:0 MN1@9:g 342
R895 g1:0 g1:6 1.12
R896 g1:0 MN1@0:g 342
R897 g1:0 MN1@1:g 342
R898 g1:0 MN1@2:g 342
R899 g1:0 MN1@3:g 342
R900 g1:0 MN1@4:g 342
R901 g1:0 MN1@5:g 342
R902 g1:0 MN1@6:g 342
R903 g1:0 MN1@7:g 342
R904 g1:0 MN1@8:g 342
R905 g1:0 MN1@9:g 342
R906 g1:0 g1:16 5.544
R907 g1:0 MN1@0:g 342
R908 g1:0 MN1@1:g 342
R909 g1:0 MN1@2:g 342
R910 g1:0 MN1@3:g 342
R911 g1:0 MN1@4:g 342
R912 g1:0 MN1@5:g 342
R913 g1:0 MN1@6:g 342
R914 g1:0 MN1@7:g 342
R915 g1:0 MN1@8:g 342
R916 g1:0 MN1@9:g 342
C298 g1:2 0 8.400000000000001e-15
C299 g1:2 0 8.400000000000001e-15
C300 g1:2 0 6.552000000000001e-14
C301 g1:3 0 8.400000000000001e-15
C302 g1:3 0 8.400000000000001e-15
C303 g1:3 0 6.552000000000001e-14
C304 g1:4 0 8.400000000000001e-15
C305 g1:4 0 8.400000000000001e-15
C306 g1:4 0 8.82e-15
C307 g1:5 0 7.77e-15
C308 g1:5 0 7.56e-15
C309 g1:5 0 2.457e-14
C310 g1:1 0 8.400000000000001e-15
C311 g1:1 0 8.400000000000001e-15
C312 g1:1 0 6.552000000000001e-14
C313 g1:0 0 8.400000000000001e-15
C314 g1:0 0 8.400000000000001e-15
C315 g1:0 0 4.1580000000000004e-14

