*|DSPF	1.5
*|DESIGN	nmos_dp_5x38x2_111_0
*|DATE	"Wed Jun 19 2025"
*|VENDOR	"Mentor Graphics Corporation"
*|PROGRAM	"Calibre xACT"
*|VERSION	"v2020.4_34.17"
*|DIVIDER	|
*|DELIMITER	:
*|BUSBIT	[]
* Corner Name: 12lp_11M_3Mx_4Cx_2Kx_2Gx_LB_nominal_detailed_25
* Nominal Temperature: 25C
* Circuit Temperature: 25C
*

* Integrated TICER reduction is not enabled.
* SHORT DELAY THRESHOLD: 2e-14
* Fill Mode: NG
* PEX REDUCE CC ABSOLUTE : disabled
* PEX REDUCE CC RATIO : disabled
* Delta transform mode : 344834

.subckt nmos_dp_5x38x2_111_0 b d0 d1 g0 g1 s

* Net:s ----------------


R1 s s:19 2.184
R2 s s:39 1.093
R3 s s:40 1.093
R4 s:40 s:83 13.901
R5 s:40 s:85 2.227
R6 s:40 s:125 1.093
R7 s:40 s:127 3.276
R8 s:127 s:20 2.184
R9 s:127 MN1@25:s 14
R10 s:127 s:129 4.368
R11 s:127 MN1@25:s 14
R12 s:129 s:21 2.184
R13 s:129 MN1@27:s 14
R14 s:129 s:131 4.368
R15 s:129 MN1@27:s 14
R16 s:131 s:22 2.184
R17 s:131 MN1@29:s 14
R18 s:131 s:133 4.368
R19 s:131 MN1@29:s 14
R20 s:133 s:23 2.184
R21 s:133 MN1@31:s 14
R22 s:133 s:135 4.368
R23 s:133 MN1@31:s 14
R24 s:135 s:24 2.184
R25 s:135 MN1@33:s 14
R26 s:135 s:137 4.368
R27 s:135 MN1@33:s 14
R28 s:137 s:25 2.184
R29 s:137 MN1@35:s 14
R30 s:137 s:139 4.368
R31 s:137 MN1@35:s 14
R32 s:139 s:26 2.184
R33 s:139 MN1@37:s 14
R34 s:139 s:141 4.368
R35 s:139 MN1@37:s 14
R36 s:141 s:27 2.184
R37 s:141 MN1@39:s 14
R38 s:141 s:143 4.368
R39 s:141 MN1@39:s 14
R40 s:143 s:28 2.184
R41 s:143 MN1@41:s 14
R42 s:143 s:145 4.368
R43 s:143 MN1@41:s 14
R44 s:145 s:29 2.184
R45 s:145 MN1@43:s 14
R46 s:145 s:147 4.368
R47 s:145 MN1@43:s 14
R48 s:147 s:30 2.184
R49 s:147 MN1@45:s 14
R50 s:147 s:149 4.368
R51 s:147 MN1@45:s 14
R52 s:149 s:31 2.184
R53 s:149 MN1@47:s 14
R54 s:149 s:151 4.368
R55 s:149 MN1@47:s 14
R56 s:151 s:32 2.184
R57 s:151 MN1@49:s 14
R58 s:151 s:153 4.368
R59 s:151 MN1@49:s 14
R60 s:153 s:33 2.184
R61 s:153 MN1@51:s 14
R62 s:153 s:155 4.368
R63 s:153 MN1@51:s 14
R64 s:155 s:34 2.184
R65 s:155 MN1@53:s 14
R66 s:155 s:157 4.368
R67 s:155 MN1@53:s 14
R68 s:157 s:35 2.184
R69 s:157 MN1@55:s 14
R70 s:157 s:159 4.368
R71 s:157 MN1@55:s 14
R72 s:159 s:36 2.184
R73 s:159 MN1@57:s 14
R74 s:159 s:161 4.368
R75 s:159 MN1@57:s 14
R76 s:161 s:37 2.184
R77 s:161 MN1@59:s 14
R78 s:161 s:165 4.369
R79 s:161 MN1@59:s 14
R80 s:37 s:291 1.092
R81 s:37 MN1@59:s 14
R82 s:37 s:36 4.368
R83 s:37 MN1@59:s 14
R84 s:37 s:332 4.368
R85 s:37 MN1@59:s 14
R86 s:332 s:292 15.092
R87 s:332 s:38 14.733
R88 s:38 s:249 0.359
R89 s:292 s:162 3.36
R90 s:292 MN1@61:s 14
R91 s:36 s:290 1.092
R92 s:36 MN1@57:s 14
R93 s:36 s:35 4.368
R94 s:36 MN1@57:s 14
R95 s:35 s:289 1.092
R96 s:35 MN1@55:s 14
R97 s:35 s:34 4.368
R98 s:35 MN1@55:s 14
R99 s:34 s:288 1.092
R100 s:34 MN1@53:s 14
R101 s:34 s:33 4.368
R102 s:34 MN1@53:s 14
R103 s:33 s:287 1.092
R104 s:33 MN1@51:s 14
R105 s:33 s:32 4.368
R106 s:33 MN1@51:s 14
R107 s:32 s:286 1.092
R108 s:32 MN1@49:s 14
R109 s:32 s:31 4.368
R110 s:32 MN1@49:s 14
R111 s:31 s:285 1.092
R112 s:31 MN1@47:s 14
R113 s:31 s:30 4.368
R114 s:31 MN1@47:s 14
R115 s:30 s:284 1.092
R116 s:30 MN1@45:s 14
R117 s:30 s:29 4.368
R118 s:30 MN1@45:s 14
R119 s:29 s:283 1.092
R120 s:29 MN1@43:s 14
R121 s:29 s:28 4.368
R122 s:29 MN1@43:s 14
R123 s:28 s:282 1.092
R124 s:28 MN1@41:s 14
R125 s:28 s:27 4.368
R126 s:28 MN1@41:s 14
R127 s:27 s:281 1.092
R128 s:27 MN1@39:s 14
R129 s:27 s:26 4.368
R130 s:27 MN1@39:s 14
R131 s:26 s:280 1.092
R132 s:26 MN1@37:s 14
R133 s:26 s:25 4.368
R134 s:26 MN1@37:s 14
R135 s:25 s:279 1.092
R136 s:25 MN1@35:s 14
R137 s:25 s:24 4.368
R138 s:25 MN1@35:s 14
R139 s:24 s:278 1.092
R140 s:24 MN1@33:s 14
R141 s:24 s:23 4.368
R142 s:24 MN1@33:s 14
R143 s:23 s:277 1.092
R144 s:23 MN1@31:s 14
R145 s:23 s:22 4.368
R146 s:23 MN1@31:s 14
R147 s:22 s:276 1.092
R148 s:22 MN1@29:s 14
R149 s:22 s:21 4.368
R150 s:22 MN1@29:s 14
R151 s:21 s:275 1.092
R152 s:21 MN1@27:s 14
R153 s:21 s:20 4.368
R154 s:21 MN1@27:s 14
R155 s:20 s:274 1.092
R156 s:20 MN1@25:s 14
R157 s:20 s:85 3.276
R158 s:20 MN1@25:s 14
R159 s:85 s:252 1.008
R160 s:85 s:19 1.092
R161 s:19 s:125 2.184
R162 s:19 MN0@37:s 14
R163 s:19 s:273 1.092
R164 s:19 MN0@37:s 14
R165 s:19 s:84 1.092
R166 s:19 MN0@37:s 14
R167 s:84 s:39 2.226
R168 s:84 s:250 1.008
R169 s:84 s:18 3.276
R170 s:18 s:123 2.184
R171 s:18 MN0@35:s 14
R172 s:18 s:272 1.092
R173 s:18 MN0@35:s 14
R174 s:18 s:17 4.368
R175 s:18 MN0@35:s 14
R176 s:17 s:121 2.184
R177 s:17 MN0@33:s 14
R178 s:17 s:271 1.092
R179 s:17 MN0@33:s 14
R180 s:17 s:16 4.368
R181 s:17 MN0@33:s 14
R182 s:16 s:119 2.184
R183 s:16 MN0@31:s 14
R184 s:16 s:270 1.092
R185 s:16 MN0@31:s 14
R186 s:16 s:15 4.368
R187 s:16 MN0@31:s 14
R188 s:15 s:117 2.184
R189 s:15 MN0@29:s 14
R190 s:15 s:269 1.092
R191 s:15 MN0@29:s 14
R192 s:15 s:14 4.368
R193 s:15 MN0@29:s 14
R194 s:14 s:115 2.184
R195 s:14 MN0@27:s 14
R196 s:14 s:268 1.092
R197 s:14 MN0@27:s 14
R198 s:14 s:13 4.368
R199 s:14 MN0@27:s 14
R200 s:13 s:113 2.184
R201 s:13 MN0@25:s 14
R202 s:13 s:267 1.092
R203 s:13 MN0@25:s 14
R204 s:13 s:12 4.368
R205 s:13 MN0@25:s 14
R206 s:12 s:111 2.184
R207 s:12 MN0@23:s 14
R208 s:12 s:266 1.092
R209 s:12 MN0@23:s 14
R210 s:12 s:11 4.368
R211 s:12 MN0@23:s 14
R212 s:11 s:109 2.184
R213 s:11 MN0@21:s 14
R214 s:11 s:265 1.092
R215 s:11 MN0@21:s 14
R216 s:11 s:10 4.368
R217 s:11 MN0@21:s 14
R218 s:10 s:107 2.184
R219 s:10 MN0@19:s 14
R220 s:10 s:264 1.092
R221 s:10 MN0@19:s 14
R222 s:10 s:9 4.368
R223 s:10 MN0@19:s 14
R224 s:9 s:105 2.184
R225 s:9 MN0@17:s 14
R226 s:9 s:263 1.092
R227 s:9 MN0@17:s 14
R228 s:9 s:8 4.368
R229 s:9 MN0@17:s 14
R230 s:8 s:103 2.184
R231 s:8 MN0@15:s 14
R232 s:8 s:262 1.092
R233 s:8 MN0@15:s 14
R234 s:8 s:7 4.368
R235 s:8 MN0@15:s 14
R236 s:7 s:101 2.184
R237 s:7 MN0@13:s 14
R238 s:7 s:261 1.092
R239 s:7 MN0@13:s 14
R240 s:7 s:6 4.368
R241 s:7 MN0@13:s 14
R242 s:6 s:99 2.184
R243 s:6 MN0@11:s 14
R244 s:6 s:260 1.092
R245 s:6 MN0@11:s 14
R246 s:6 s:5 4.368
R247 s:6 MN0@11:s 14
R248 s:5 s:97 2.184
R249 s:5 MN0@9:s 14
R250 s:5 s:259 1.092
R251 s:5 MN0@9:s 14
R252 s:5 s:4 4.368
R253 s:5 MN0@9:s 14
R254 s:4 s:95 2.184
R255 s:4 MN0@7:s 14
R256 s:4 s:258 1.092
R257 s:4 MN0@7:s 14
R258 s:4 s:3 4.368
R259 s:4 MN0@7:s 14
R260 s:3 s:93 2.184
R261 s:3 MN0@5:s 14
R262 s:3 s:257 1.092
R263 s:3 MN0@5:s 14
R264 s:3 s:2 4.368
R265 s:3 MN0@5:s 14
R266 s:2 s:91 2.184
R267 s:2 MN0@3:s 14
R268 s:2 s:256 1.092
R269 s:2 MN0@3:s 14
R270 s:2 s:1 4.368
R271 s:2 MN0@3:s 14
R272 s:1 s:89 2.184
R273 s:1 MN0@1:s 14
R274 s:1 s:255 1.092
R275 s:1 MN0@1:s 14
R276 s:1 s:0 4.368
R277 s:1 MN0@1:s 14
R278 s:0 s:87 2.184
R279 s:0 MN0@0:s 14
R280 s:0 s:254 1.092
R281 s:0 MN0@0:s 14
R282 s:0 s:248 1.092
R283 s:0 MN0@0:s 14
R284 s:254 s:86 3.36
R285 s:254 MN0@0:s 14
R286 s:87 s:164 1.092
R287 s:87 MN0@0:s 14
R288 s:87 s:89 4.368
R289 s:87 MN0@0:s 14
R290 s:89 s:91 4.368
R291 s:89 MN0@1:s 14
R292 s:91 s:93 4.368
R293 s:91 MN0@3:s 14
R294 s:93 s:95 4.368
R295 s:93 MN0@5:s 14
R296 s:95 s:97 4.368
R297 s:95 MN0@7:s 14
R298 s:97 s:99 4.368
R299 s:97 MN0@9:s 14
R300 s:99 s:101 4.368
R301 s:99 MN0@11:s 14
R302 s:101 s:103 4.368
R303 s:101 MN0@13:s 14
R304 s:103 s:105 4.368
R305 s:103 MN0@15:s 14
R306 s:105 s:107 4.368
R307 s:105 MN0@17:s 14
R308 s:107 s:109 4.368
R309 s:107 MN0@19:s 14
R310 s:109 s:111 4.368
R311 s:109 MN0@21:s 14
R312 s:111 s:113 4.368
R313 s:111 MN0@23:s 14
R314 s:113 s:115 4.368
R315 s:113 MN0@25:s 14
R316 s:115 s:117 4.368
R317 s:115 MN0@27:s 14
R318 s:117 s:119 4.368
R319 s:117 MN0@29:s 14
R320 s:119 s:121 4.368
R321 s:119 MN0@31:s 14
R322 s:121 s:123 4.368
R323 s:121 MN0@33:s 14
R324 s:123 s:39 3.276
R325 s:123 MN0@35:s 14
R326 s:39 s:82 13.902
R327 s:39 s:125 1.093
R328 s:82 s:80 2.226
R329 s:82 s:59 3.276
R330 s:82 s:60 1.092
R331 s:60 s:205 2.184
R332 s:60 MN0@75:s 14
R333 s:60 s:312 1.092
R334 s:60 MN0@75:s 14
R335 s:60 s:83 1.092
R336 s:60 MN0@75:s 14
R337 s:83 s:81 2.227
R338 s:83 s:61 3.276
R339 s:61 s:207 2.184
R340 s:61 MN1@63:s 14
R341 s:61 s:313 1.092
R342 s:61 MN1@63:s 14
R343 s:61 s:62 4.368
R344 s:61 MN1@63:s 14
R345 s:62 s:209 2.184
R346 s:62 MN1@65:s 14
R347 s:62 s:314 1.092
R348 s:62 MN1@65:s 14
R349 s:62 s:63 4.368
R350 s:62 MN1@65:s 14
R351 s:63 s:211 2.184
R352 s:63 MN1@67:s 14
R353 s:63 s:315 1.092
R354 s:63 MN1@67:s 14
R355 s:63 s:64 4.368
R356 s:63 MN1@67:s 14
R357 s:64 s:213 2.184
R358 s:64 MN1@69:s 14
R359 s:64 s:316 1.092
R360 s:64 MN1@69:s 14
R361 s:64 s:65 4.368
R362 s:64 MN1@69:s 14
R363 s:65 s:215 2.184
R364 s:65 MN1@71:s 14
R365 s:65 s:317 1.092
R366 s:65 MN1@71:s 14
R367 s:65 s:66 4.368
R368 s:65 MN1@71:s 14
R369 s:66 s:217 2.184
R370 s:66 MN1@73:s 14
R371 s:66 s:318 1.092
R372 s:66 MN1@73:s 14
R373 s:66 s:67 4.368
R374 s:66 MN1@73:s 14
R375 s:67 s:219 2.184
R376 s:67 MN1@75:s 14
R377 s:67 s:319 1.092
R378 s:67 MN1@75:s 14
R379 s:67 s:68 4.368
R380 s:67 MN1@75:s 14
R381 s:68 s:221 2.184
R382 s:68 MN1@1:s 14
R383 s:68 s:320 1.092
R384 s:68 MN1@1:s 14
R385 s:68 s:69 4.368
R386 s:68 MN1@1:s 14
R387 s:69 s:223 2.184
R388 s:69 MN1@3:s 14
R389 s:69 s:321 1.092
R390 s:69 MN1@3:s 14
R391 s:69 s:70 4.368
R392 s:69 MN1@3:s 14
R393 s:70 s:225 2.184
R394 s:70 MN1@5:s 14
R395 s:70 s:322 1.092
R396 s:70 MN1@5:s 14
R397 s:70 s:71 4.368
R398 s:70 MN1@5:s 14
R399 s:71 s:227 2.184
R400 s:71 MN1@7:s 14
R401 s:71 s:323 1.092
R402 s:71 MN1@7:s 14
R403 s:71 s:72 4.368
R404 s:71 MN1@7:s 14
R405 s:72 s:229 2.184
R406 s:72 MN1@9:s 14
R407 s:72 s:324 1.092
R408 s:72 MN1@9:s 14
R409 s:72 s:73 4.368
R410 s:72 MN1@9:s 14
R411 s:73 s:231 2.184
R412 s:73 MN1@11:s 14
R413 s:73 s:325 1.092
R414 s:73 MN1@11:s 14
R415 s:73 s:74 4.368
R416 s:73 MN1@11:s 14
R417 s:74 s:233 2.184
R418 s:74 MN1@13:s 14
R419 s:74 s:326 1.092
R420 s:74 MN1@13:s 14
R421 s:74 s:75 4.368
R422 s:74 MN1@13:s 14
R423 s:75 s:235 2.184
R424 s:75 MN1@15:s 14
R425 s:75 s:327 1.092
R426 s:75 MN1@15:s 14
R427 s:75 s:76 4.368
R428 s:75 MN1@15:s 14
R429 s:76 s:237 2.184
R430 s:76 MN1@17:s 14
R431 s:76 s:328 1.092
R432 s:76 MN1@17:s 14
R433 s:76 s:77 4.368
R434 s:76 MN1@17:s 14
R435 s:77 s:239 2.184
R436 s:77 MN1@19:s 14
R437 s:77 s:329 1.092
R438 s:77 MN1@19:s 14
R439 s:77 s:78 4.368
R440 s:77 MN1@19:s 14
R441 s:78 s:241 2.184
R442 s:78 MN1@21:s 14
R443 s:78 s:330 1.092
R444 s:78 MN1@21:s 14
R445 s:78 s:333 4.368
R446 s:78 MN1@21:s 14
R447 s:333 s:331 15.092
R448 s:333 s:79 14.733
R449 s:79 s:247 0.359
R450 s:331 s:242 3.36
R451 s:331 MN1@23:s 14
R452 s:330 s:240 3.36
R453 s:330 MN1@21:s 14
R454 s:241 s:239 4.368
R455 s:241 MN1@21:s 14
R456 s:241 s:245 4.369
R457 s:241 MN1@21:s 14
R458 s:239 s:237 4.368
R459 s:239 MN1@19:s 14
R460 s:237 s:235 4.368
R461 s:237 MN1@17:s 14
R462 s:235 s:233 4.368
R463 s:235 MN1@15:s 14
R464 s:233 s:231 4.368
R465 s:233 MN1@13:s 14
R466 s:231 s:229 4.368
R467 s:231 MN1@11:s 14
R468 s:229 s:227 4.368
R469 s:229 MN1@9:s 14
R470 s:227 s:225 4.368
R471 s:227 MN1@7:s 14
R472 s:225 s:223 4.368
R473 s:225 MN1@5:s 14
R474 s:223 s:221 4.368
R475 s:223 MN1@3:s 14
R476 s:221 s:219 4.368
R477 s:221 MN1@1:s 14
R478 s:219 s:217 4.368
R479 s:219 MN1@75:s 14
R480 s:217 s:215 4.368
R481 s:217 MN1@73:s 14
R482 s:215 s:213 4.368
R483 s:215 MN1@71:s 14
R484 s:213 s:211 4.368
R485 s:213 MN1@69:s 14
R486 s:211 s:209 4.368
R487 s:211 MN1@67:s 14
R488 s:209 s:207 4.368
R489 s:209 MN1@65:s 14
R490 s:207 s:81 3.276
R491 s:207 MN1@63:s 14
R492 s:81 s:253 0.965
R493 s:81 s:205 1.093
R494 s:205 s:80 1.093
R495 s:205 MN0@75:s 14
R496 s:80 s:251 0.966
R497 s:80 s:203 3.276
R498 s:203 s:59 2.184
R499 s:203 MN0@73:s 14
R500 s:203 s:201 4.368
R501 s:203 MN0@73:s 14
R502 s:201 s:58 2.184
R503 s:201 MN0@71:s 14
R504 s:201 s:199 4.368
R505 s:201 MN0@71:s 14
R506 s:199 s:57 2.184
R507 s:199 MN0@69:s 14
R508 s:199 s:197 4.368
R509 s:199 MN0@69:s 14
R510 s:197 s:56 2.184
R511 s:197 MN0@67:s 14
R512 s:197 s:195 4.368
R513 s:197 MN0@67:s 14
R514 s:195 s:55 2.184
R515 s:195 MN0@65:s 14
R516 s:195 s:193 4.368
R517 s:195 MN0@65:s 14
R518 s:193 s:54 2.184
R519 s:193 MN0@63:s 14
R520 s:193 s:191 4.368
R521 s:193 MN0@63:s 14
R522 s:191 s:53 2.184
R523 s:191 MN0@61:s 14
R524 s:191 s:189 4.368
R525 s:191 MN0@61:s 14
R526 s:189 s:52 2.184
R527 s:189 MN0@59:s 14
R528 s:189 s:187 4.368
R529 s:189 MN0@59:s 14
R530 s:187 s:51 2.184
R531 s:187 MN0@57:s 14
R532 s:187 s:185 4.368
R533 s:187 MN0@57:s 14
R534 s:185 s:50 2.184
R535 s:185 MN0@55:s 14
R536 s:185 s:183 4.368
R537 s:185 MN0@55:s 14
R538 s:183 s:49 2.184
R539 s:183 MN0@53:s 14
R540 s:183 s:181 4.368
R541 s:183 MN0@53:s 14
R542 s:181 s:48 2.184
R543 s:181 MN0@51:s 14
R544 s:181 s:179 4.368
R545 s:181 MN0@51:s 14
R546 s:179 s:47 2.184
R547 s:179 MN0@49:s 14
R548 s:179 s:177 4.368
R549 s:179 MN0@49:s 14
R550 s:177 s:46 2.184
R551 s:177 MN0@47:s 14
R552 s:177 s:175 4.368
R553 s:177 MN0@47:s 14
R554 s:175 s:45 2.184
R555 s:175 MN0@45:s 14
R556 s:175 s:173 4.368
R557 s:175 MN0@45:s 14
R558 s:173 s:44 2.184
R559 s:173 MN0@43:s 14
R560 s:173 s:171 4.368
R561 s:173 MN0@43:s 14
R562 s:171 s:43 2.184
R563 s:171 MN0@41:s 14
R564 s:171 s:169 4.368
R565 s:171 MN0@41:s 14
R566 s:169 s:42 2.184
R567 s:169 MN0@39:s 14
R568 s:169 s:167 4.368
R569 s:169 MN0@39:s 14
R570 s:167 s:41 2.184
R571 s:167 MN0@38:s 14
R572 s:167 s:244 1.092
R573 s:167 MN0@38:s 14
R574 s:41 s:293 1.092
R575 s:41 MN0@38:s 14
R576 s:41 s:246 1.092
R577 s:41 MN0@38:s 14
R578 s:41 s:42 4.368
R579 s:41 MN0@38:s 14
R580 s:42 s:294 1.092
R581 s:42 MN0@39:s 14
R582 s:42 s:43 4.368
R583 s:42 MN0@39:s 14
R584 s:43 s:295 1.092
R585 s:43 MN0@41:s 14
R586 s:43 s:44 4.368
R587 s:43 MN0@41:s 14
R588 s:44 s:296 1.092
R589 s:44 MN0@43:s 14
R590 s:44 s:45 4.368
R591 s:44 MN0@43:s 14
R592 s:45 s:297 1.092
R593 s:45 MN0@45:s 14
R594 s:45 s:46 4.368
R595 s:45 MN0@45:s 14
R596 s:46 s:298 1.092
R597 s:46 MN0@47:s 14
R598 s:46 s:47 4.368
R599 s:46 MN0@47:s 14
R600 s:47 s:299 1.092
R601 s:47 MN0@49:s 14
R602 s:47 s:48 4.368
R603 s:47 MN0@49:s 14
R604 s:48 s:300 1.092
R605 s:48 MN0@51:s 14
R606 s:48 s:49 4.368
R607 s:48 MN0@51:s 14
R608 s:49 s:301 1.092
R609 s:49 MN0@53:s 14
R610 s:49 s:50 4.368
R611 s:49 MN0@53:s 14
R612 s:50 s:302 1.092
R613 s:50 MN0@55:s 14
R614 s:50 s:51 4.368
R615 s:50 MN0@55:s 14
R616 s:51 s:303 1.092
R617 s:51 MN0@57:s 14
R618 s:51 s:52 4.368
R619 s:51 MN0@57:s 14
R620 s:52 s:304 1.092
R621 s:52 MN0@59:s 14
R622 s:52 s:53 4.368
R623 s:52 MN0@59:s 14
R624 s:53 s:305 1.092
R625 s:53 MN0@61:s 14
R626 s:53 s:54 4.368
R627 s:53 MN0@61:s 14
R628 s:54 s:306 1.092
R629 s:54 MN0@63:s 14
R630 s:54 s:55 4.368
R631 s:54 MN0@63:s 14
R632 s:55 s:307 1.092
R633 s:55 MN0@65:s 14
R634 s:55 s:56 4.368
R635 s:55 MN0@65:s 14
R636 s:56 s:308 1.092
R637 s:56 MN0@67:s 14
R638 s:56 s:57 4.368
R639 s:56 MN0@67:s 14
R640 s:57 s:309 1.092
R641 s:57 MN0@69:s 14
R642 s:57 s:58 4.368
R643 s:57 MN0@69:s 14
R644 s:58 s:310 1.092
R645 s:58 MN0@71:s 14
R646 s:58 s:59 4.368
R647 s:58 MN0@71:s 14
R648 s:59 s:311 1.092
R649 s:59 MN0@73:s 14
R650 s:311 s:202 3.36
R651 s:311 MN0@73:s 14
R652 s:310 s:200 3.36
R653 s:310 MN0@71:s 14
R654 s:309 s:198 3.36
R655 s:309 MN0@69:s 14
R656 s:308 s:196 3.36
R657 s:308 MN0@67:s 14
R658 s:307 s:194 3.36
R659 s:307 MN0@65:s 14
R660 s:306 s:192 3.36
R661 s:306 MN0@63:s 14
R662 s:305 s:190 3.36
R663 s:305 MN0@61:s 14
R664 s:304 s:188 3.36
R665 s:304 MN0@59:s 14
R666 s:303 s:186 3.36
R667 s:303 MN0@57:s 14
R668 s:302 s:184 3.36
R669 s:302 MN0@55:s 14
R670 s:301 s:182 3.36
R671 s:301 MN0@53:s 14
R672 s:300 s:180 3.36
R673 s:300 MN0@51:s 14
R674 s:299 s:178 3.36
R675 s:299 MN0@49:s 14
R676 s:298 s:176 3.36
R677 s:298 MN0@47:s 14
R678 s:297 s:174 3.36
R679 s:297 MN0@45:s 14
R680 s:296 s:172 3.36
R681 s:296 MN0@43:s 14
R682 s:295 s:170 3.36
R683 s:295 MN0@41:s 14
R684 s:294 s:168 3.36
R685 s:294 MN0@39:s 14
R686 s:293 s:166 3.36
R687 s:293 MN0@38:s 14
R688 s:329 s:238 3.36
R689 s:329 MN1@19:s 14
R690 s:328 s:236 3.36
R691 s:328 MN1@17:s 14
R692 s:327 s:234 3.36
R693 s:327 MN1@15:s 14
R694 s:326 s:232 3.36
R695 s:326 MN1@13:s 14
R696 s:325 s:230 3.36
R697 s:325 MN1@11:s 14
R698 s:324 s:228 3.36
R699 s:324 MN1@9:s 14
R700 s:323 s:226 3.36
R701 s:323 MN1@7:s 14
R702 s:322 s:224 3.36
R703 s:322 MN1@5:s 14
R704 s:321 s:222 3.36
R705 s:321 MN1@3:s 14
R706 s:320 s:220 3.36
R707 s:320 MN1@1:s 14
R708 s:319 s:218 3.36
R709 s:319 MN1@75:s 14
R710 s:318 s:216 3.36
R711 s:318 MN1@73:s 14
R712 s:317 s:214 3.36
R713 s:317 MN1@71:s 14
R714 s:316 s:212 3.36
R715 s:316 MN1@69:s 14
R716 s:315 s:210 3.36
R717 s:315 MN1@67:s 14
R718 s:314 s:208 3.36
R719 s:314 MN1@65:s 14
R720 s:313 s:206 3.36
R721 s:313 MN1@63:s 14
R722 s:312 s:204 3.36
R723 s:312 MN0@75:s 14
R724 s:255 s:88 3.36
R725 s:255 MN0@1:s 14
R726 s:256 s:90 3.36
R727 s:256 MN0@3:s 14
R728 s:257 s:92 3.36
R729 s:257 MN0@5:s 14
R730 s:258 s:94 3.36
R731 s:258 MN0@7:s 14
R732 s:259 s:96 3.36
R733 s:259 MN0@9:s 14
R734 s:260 s:98 3.36
R735 s:260 MN0@11:s 14
R736 s:261 s:100 3.36
R737 s:261 MN0@13:s 14
R738 s:262 s:102 3.36
R739 s:262 MN0@15:s 14
R740 s:263 s:104 3.36
R741 s:263 MN0@17:s 14
R742 s:264 s:106 3.36
R743 s:264 MN0@19:s 14
R744 s:265 s:108 3.36
R745 s:265 MN0@21:s 14
R746 s:266 s:110 3.36
R747 s:266 MN0@23:s 14
R748 s:267 s:112 3.36
R749 s:267 MN0@25:s 14
R750 s:268 s:114 3.36
R751 s:268 MN0@27:s 14
R752 s:269 s:116 3.36
R753 s:269 MN0@29:s 14
R754 s:270 s:118 3.36
R755 s:270 MN0@31:s 14
R756 s:271 s:120 3.36
R757 s:271 MN0@33:s 14
R758 s:272 s:122 3.36
R759 s:272 MN0@35:s 14
R760 s:273 s:124 3.36
R761 s:273 MN0@37:s 14
R762 s:274 s:126 3.36
R763 s:274 MN1@25:s 14
R764 s:275 s:128 3.36
R765 s:275 MN1@27:s 14
R766 s:276 s:130 3.36
R767 s:276 MN1@29:s 14
R768 s:277 s:132 3.36
R769 s:277 MN1@31:s 14
R770 s:278 s:134 3.36
R771 s:278 MN1@33:s 14
R772 s:279 s:136 3.36
R773 s:279 MN1@35:s 14
R774 s:280 s:138 3.36
R775 s:280 MN1@37:s 14
R776 s:281 s:140 3.36
R777 s:281 MN1@39:s 14
R778 s:282 s:142 3.36
R779 s:282 MN1@41:s 14
R780 s:283 s:144 3.36
R781 s:283 MN1@43:s 14
R782 s:284 s:146 3.36
R783 s:284 MN1@45:s 14
R784 s:285 s:148 3.36
R785 s:285 MN1@47:s 14
R786 s:286 s:150 3.36
R787 s:286 MN1@49:s 14
R788 s:287 s:152 3.36
R789 s:287 MN1@51:s 14
R790 s:288 s:154 3.36
R791 s:288 MN1@53:s 14
R792 s:289 s:156 3.36
R793 s:289 MN1@55:s 14
R794 s:290 s:158 3.36
R795 s:290 MN1@57:s 14
R796 s:291 s:160 3.36
R797 s:291 MN1@59:s 14
R798 MN0@1:s MN0@2:s 0.01
R799 MN0@3:s MN0@4:s 0.01
R800 MN0@5:s MN0@6:s 0.01
R801 MN0@7:s MN0@8:s 0.01
R802 MN0@9:s MN0@10:s 0.01
R803 MN0@11:s MN0@12:s 0.01
R804 MN0@13:s MN0@14:s 0.01
R805 MN0@15:s MN0@16:s 0.01
R806 MN0@17:s MN0@18:s 0.01
R807 MN0@19:s MN0@20:s 0.01
R808 MN0@21:s MN0@22:s 0.01
R809 MN0@23:s MN0@24:s 0.01
R810 MN0@25:s MN0@26:s 0.01
R811 MN0@27:s MN0@28:s 0.01
R812 MN0@29:s MN0@30:s 0.01
R813 MN0@31:s MN0@32:s 0.01
R814 MN0@33:s MN0@34:s 0.01
R815 MN0@35:s MN0@36:s 0.01
R816 MN0@37:s MN1@24:s 0.01
R817 MN1@25:s MN1@26:s 0.01
R818 MN1@27:s MN1@28:s 0.01
R819 MN1@29:s MN1@30:s 0.01
R820 MN1@31:s MN1@32:s 0.01
R821 MN1@33:s MN1@34:s 0.01
R822 MN1@35:s MN1@36:s 0.01
R823 MN1@37:s MN1@38:s 0.01
R824 MN1@39:s MN1@40:s 0.01
R825 MN1@41:s MN1@42:s 0.01
R826 MN1@43:s MN1@44:s 0.01
R827 MN1@45:s MN1@46:s 0.01
R828 MN1@47:s MN1@48:s 0.01
R829 MN1@49:s MN1@50:s 0.01
R830 MN1@51:s MN1@52:s 0.01
R831 MN1@53:s MN1@54:s 0.01
R832 MN1@55:s MN1@56:s 0.01
R833 MN1@57:s MN1@58:s 0.01
R834 MN1@59:s MN1@60:s 0.01
R835 MN0@39:s MN0@40:s 0.01
R836 MN0@41:s MN0@42:s 0.01
R837 MN0@43:s MN0@44:s 0.01
R838 MN0@45:s MN0@46:s 0.01
R839 MN0@47:s MN0@48:s 0.01
R840 MN0@49:s MN0@50:s 0.01
R841 MN0@51:s MN0@52:s 0.01
R842 MN0@53:s MN0@54:s 0.01
R843 MN0@55:s MN0@56:s 0.01
R844 MN0@57:s MN0@58:s 0.01
R845 MN0@59:s MN0@60:s 0.01
R846 MN0@61:s MN0@62:s 0.01
R847 MN0@63:s MN0@64:s 0.01
R848 MN0@65:s MN0@66:s 0.01
R849 MN0@67:s MN0@68:s 0.01
R850 MN0@69:s MN0@70:s 0.01
R851 MN0@71:s MN0@72:s 0.01
R852 MN0@73:s MN0@74:s 0.01
R853 MN0@75:s MN1@62:s 0.01
R854 MN1@63:s MN1@64:s 0.01
R855 MN1@65:s MN1@66:s 0.01
R856 MN1@67:s MN1@68:s 0.01
R857 MN1@69:s MN1@70:s 0.01
R858 MN1@71:s MN1@72:s 0.01
R859 MN1@73:s MN1@74:s 0.01
R860 MN1@75:s MN1@0:s 0.01
R861 MN1@1:s MN1@2:s 0.01
R862 MN1@3:s MN1@4:s 0.01
R863 MN1@5:s MN1@6:s 0.01
R864 MN1@7:s MN1@8:s 0.01
R865 MN1@9:s MN1@10:s 0.01
R866 MN1@11:s MN1@12:s 0.01
R867 MN1@13:s MN1@14:s 0.01
R868 MN1@15:s MN1@16:s 0.01
R869 MN1@17:s MN1@18:s 0.01
R870 MN1@19:s MN1@20:s 0.01
R871 MN1@21:s MN1@22:s 0.01
R872 MN1@23:s MN2@0:s 0.01
C1 s:40 0 1.0425882352941178e-13
C2 s:40 0 1.670117647058823e-14
C3 s:40 0 8.196295158500546e-15
C4 s:40 0 2.4572099102951287e-14
C5 s:127 0 1.6380000000000002e-14
C6 s:127 0 3.2760000000000004e-14
C7 s:129 0 1.6380000000000002e-14
C8 s:129 0 3.2760000000000004e-14
C9 s:131 0 1.6380000000000002e-14
C10 s:131 0 3.2760000000000004e-14
C11 s:133 0 1.6380000000000002e-14
C12 s:133 0 3.2760000000000004e-14
C13 s:135 0 1.6380000000000002e-14
C14 s:135 0 3.2760000000000004e-14
C15 s:137 0 1.6380000000000002e-14
C16 s:137 0 3.2760000000000004e-14
C17 s:139 0 1.6380000000000002e-14
C18 s:139 0 3.2760000000000004e-14
C19 s:141 0 1.6380000000000002e-14
C20 s:141 0 3.2760000000000004e-14
C21 s:143 0 1.6380000000000002e-14
C22 s:143 0 3.2760000000000004e-14
C23 s:145 0 1.6380000000000002e-14
C24 s:145 0 3.2760000000000004e-14
C25 s:147 0 1.6380000000000002e-14
C26 s:147 0 3.2760000000000004e-14
C27 s:149 0 1.6380000000000002e-14
C28 s:149 0 3.2760000000000004e-14
C29 s:151 0 1.6380000000000002e-14
C30 s:151 0 3.2760000000000004e-14
C31 s:153 0 1.6380000000000002e-14
C32 s:153 0 3.2760000000000004e-14
C33 s:155 0 1.6380000000000002e-14
C34 s:155 0 3.2760000000000004e-14
C35 s:157 0 1.6380000000000002e-14
C36 s:157 0 3.2760000000000004e-14
C37 s:159 0 1.6380000000000002e-14
C38 s:159 0 3.2760000000000004e-14
C39 s:161 0 1.6380000000000002e-14
C40 s:161 0 3.2766057132343526e-14
C41 s:37 0 8.190000000000001e-15
C42 s:37 0 3.2760000000000004e-14
C43 s:37 0 3.2760000000000004e-14
C44 s:332 0 8.190000000000001e-15
C45 s:332 0 5.494556962025254e-15
C46 s:38 0 2.6954430379747465e-15
C47 s:292 0 2.5200000000000002e-14
C48 s:36 0 8.190000000000001e-15
C49 s:36 0 3.2760000000000004e-14
C50 s:35 0 8.190000000000001e-15
C51 s:35 0 3.2760000000000004e-14
C52 s:34 0 8.190000000000001e-15
C53 s:34 0 3.2760000000000004e-14
C54 s:33 0 8.190000000000001e-15
C55 s:33 0 3.2760000000000004e-14
C56 s:32 0 8.190000000000001e-15
C57 s:32 0 3.2760000000000004e-14
C58 s:31 0 8.190000000000001e-15
C59 s:31 0 3.2760000000000004e-14
C60 s:30 0 8.190000000000001e-15
C61 s:30 0 3.2760000000000004e-14
C62 s:29 0 8.190000000000001e-15
C63 s:29 0 3.2760000000000004e-14
C64 s:28 0 8.190000000000001e-15
C65 s:28 0 3.2760000000000004e-14
C66 s:27 0 8.190000000000001e-15
C67 s:27 0 3.2760000000000004e-14
C68 s:26 0 8.190000000000001e-15
C69 s:26 0 3.2760000000000004e-14
C70 s:25 0 8.190000000000001e-15
C71 s:25 0 3.2760000000000004e-14
C72 s:24 0 8.190000000000001e-15
C73 s:24 0 3.2760000000000004e-14
C74 s:23 0 8.190000000000001e-15
C75 s:23 0 3.2760000000000004e-14
C76 s:22 0 8.190000000000001e-15
C77 s:22 0 3.2760000000000004e-14
C78 s:21 0 8.190000000000001e-15
C79 s:21 0 3.2760000000000004e-14
C80 s:20 0 8.190000000000001e-15
C81 s:20 0 2.4570000000000098e-14
C82 s:85 0 7.56e-15
C83 s:85 0 8.189999999999905e-15
C84 s:19 0 1.6380000000000002e-14
C85 s:19 0 8.190000000000001e-15
C86 s:19 0 8.190000000000001e-15
C87 s:84 0 1.6692941176470592e-14
C88 s:84 0 7.56e-15
C89 s:84 0 2.457e-14
C90 s:18 0 1.6380000000000002e-14
C91 s:18 0 8.190000000000001e-15
C92 s:18 0 3.2760000000000004e-14
C93 s:17 0 1.6380000000000002e-14
C94 s:17 0 8.190000000000001e-15
C95 s:17 0 3.2760000000000004e-14
C96 s:16 0 1.6380000000000002e-14
C97 s:16 0 8.190000000000001e-15
C98 s:16 0 3.2760000000000004e-14
C99 s:15 0 1.6380000000000002e-14
C100 s:15 0 8.190000000000001e-15
C101 s:15 0 3.2760000000000004e-14
C102 s:14 0 1.6380000000000002e-14
C103 s:14 0 8.190000000000001e-15
C104 s:14 0 3.2760000000000004e-14
C105 s:13 0 1.6380000000000002e-14
C106 s:13 0 8.190000000000001e-15
C107 s:13 0 3.2760000000000004e-14
C108 s:12 0 1.6380000000000002e-14
C109 s:12 0 8.190000000000001e-15
C110 s:12 0 3.2760000000000004e-14
C111 s:11 0 1.6380000000000002e-14
C112 s:11 0 8.190000000000001e-15
C113 s:11 0 3.2760000000000004e-14
C114 s:10 0 1.6380000000000002e-14
C115 s:10 0 8.190000000000001e-15
C116 s:10 0 3.2760000000000004e-14
C117 s:9 0 1.6380000000000002e-14
C118 s:9 0 8.190000000000001e-15
C119 s:9 0 3.2760000000000004e-14
C120 s:8 0 1.6380000000000002e-14
C121 s:8 0 8.190000000000001e-15
C122 s:8 0 3.2760000000000004e-14
C123 s:7 0 1.6380000000000002e-14
C124 s:7 0 8.190000000000001e-15
C125 s:7 0 3.2760000000000004e-14
C126 s:6 0 1.6380000000000002e-14
C127 s:6 0 8.190000000000001e-15
C128 s:6 0 3.2760000000000004e-14
C129 s:5 0 1.6380000000000002e-14
C130 s:5 0 8.190000000000001e-15
C131 s:5 0 3.2760000000000004e-14
C132 s:4 0 1.6380000000000002e-14
C133 s:4 0 8.190000000000001e-15
C134 s:4 0 3.2760000000000004e-14
C135 s:3 0 1.6380000000000002e-14
C136 s:3 0 8.190000000000001e-15
C137 s:3 0 3.2760000000000004e-14
C138 s:2 0 1.6380000000000002e-14
C139 s:2 0 8.190000000000001e-15
C140 s:2 0 3.2760000000000004e-14
C141 s:1 0 1.6380000000000002e-14
C142 s:1 0 8.190000000000001e-15
C143 s:1 0 3.2760000000000004e-14
C144 s:0 0 1.6380000000000002e-14
C145 s:0 0 8.190000000000001e-15
C146 s:0 0 8.190000000000001e-15
C147 s:254 0 2.5200000000000002e-14
C148 s:87 0 8.190000000000001e-15
C149 s:87 0 3.2760000000000004e-14
C150 s:89 0 3.2760000000000004e-14
C151 s:91 0 3.2760000000000004e-14
C152 s:93 0 3.2760000000000004e-14
C153 s:95 0 3.2760000000000004e-14
C154 s:97 0 3.2760000000000004e-14
C155 s:99 0 3.2760000000000004e-14
C156 s:101 0 3.2760000000000004e-14
C157 s:103 0 3.2760000000000004e-14
C158 s:105 0 3.2760000000000004e-14
C159 s:107 0 3.2760000000000004e-14
C160 s:109 0 3.2760000000000004e-14
C161 s:111 0 3.2760000000000004e-14
C162 s:113 0 3.2760000000000004e-14
C163 s:115 0 3.2760000000000004e-14
C164 s:117 0 3.2760000000000004e-14
C165 s:119 0 3.2760000000000004e-14
C166 s:121 0 3.2760000000000004e-14
C167 s:123 0 2.457199284103613e-14
C168 s:39 0 1.0426705882352942e-13
C169 s:39 0 8.195976584881804e-15
C170 s:82 0 1.6692941176470592e-14
C171 s:82 0 2.457e-14
C172 s:82 0 8.190000000000001e-15
C173 s:60 0 1.6380000000000002e-14
C174 s:60 0 8.190000000000001e-15
C175 s:60 0 8.189999999999905e-15
C176 s:83 0 1.670117647058823e-14
C177 s:83 0 2.4570000000000098e-14
C178 s:61 0 1.6380000000000002e-14
C179 s:61 0 8.190000000000001e-15
C180 s:61 0 3.2760000000000004e-14
C181 s:62 0 1.6380000000000002e-14
C182 s:62 0 8.190000000000001e-15
C183 s:62 0 3.2760000000000004e-14
C184 s:63 0 1.6380000000000002e-14
C185 s:63 0 8.190000000000001e-15
C186 s:63 0 3.2760000000000004e-14
C187 s:64 0 1.6380000000000002e-14
C188 s:64 0 8.190000000000001e-15
C189 s:64 0 3.2760000000000004e-14
C190 s:65 0 1.6380000000000002e-14
C191 s:65 0 8.190000000000001e-15
C192 s:65 0 3.2760000000000004e-14
C193 s:66 0 1.6380000000000002e-14
C194 s:66 0 8.190000000000001e-15
C195 s:66 0 3.2760000000000004e-14
C196 s:67 0 1.6380000000000002e-14
C197 s:67 0 8.190000000000001e-15
C198 s:67 0 3.2760000000000004e-14
C199 s:68 0 1.6380000000000002e-14
C200 s:68 0 8.190000000000001e-15
C201 s:68 0 3.2760000000000004e-14
C202 s:69 0 1.6380000000000002e-14
C203 s:69 0 8.190000000000001e-15
C204 s:69 0 3.2760000000000004e-14
C205 s:70 0 1.6380000000000002e-14
C206 s:70 0 8.190000000000001e-15
C207 s:70 0 3.2760000000000004e-14
C208 s:71 0 1.6380000000000002e-14
C209 s:71 0 8.190000000000001e-15
C210 s:71 0 3.2760000000000004e-14
C211 s:72 0 1.6380000000000002e-14
C212 s:72 0 8.190000000000001e-15
C213 s:72 0 3.2760000000000004e-14
C214 s:73 0 1.6380000000000002e-14
C215 s:73 0 8.190000000000001e-15
C216 s:73 0 3.2760000000000004e-14
C217 s:74 0 1.6380000000000002e-14
C218 s:74 0 8.190000000000001e-15
C219 s:74 0 3.2760000000000004e-14
C220 s:75 0 1.6380000000000002e-14
C221 s:75 0 8.190000000000001e-15
C222 s:75 0 3.2760000000000004e-14
C223 s:76 0 1.6380000000000002e-14
C224 s:76 0 8.190000000000001e-15
C225 s:76 0 3.2760000000000004e-14
C226 s:77 0 1.6380000000000002e-14
C227 s:77 0 8.190000000000001e-15
C228 s:77 0 3.2760000000000004e-14
C229 s:78 0 1.6380000000000002e-14
C230 s:78 0 8.190000000000001e-15
C231 s:78 0 3.2760000000000004e-14
C232 s:333 0 8.190000000000001e-15
C233 s:333 0 5.494556962025254e-15
C234 s:79 0 2.6954430379747465e-15
C235 s:331 0 2.5200000000000002e-14
C236 s:330 0 2.5200000000000002e-14
C237 s:241 0 3.2760000000000004e-14
C238 s:241 0 3.2766057132343526e-14
C239 s:239 0 3.2760000000000004e-14
C240 s:237 0 3.2760000000000004e-14
C241 s:235 0 3.2760000000000004e-14
C242 s:233 0 3.2760000000000004e-14
C243 s:231 0 3.2760000000000004e-14
C244 s:229 0 3.2760000000000004e-14
C245 s:227 0 3.2760000000000004e-14
C246 s:225 0 3.2760000000000004e-14
C247 s:223 0 3.2760000000000004e-14
C248 s:221 0 3.2760000000000004e-14
C249 s:219 0 3.2760000000000004e-14
C250 s:217 0 3.2760000000000004e-14
C251 s:215 0 3.2760000000000004e-14
C252 s:213 0 3.2760000000000004e-14
C253 s:211 0 3.2760000000000004e-14
C254 s:209 0 3.2760000000000004e-14
C255 s:207 0 2.4572099102951287e-14
C256 s:81 0 7.238823529411771e-15
C257 s:81 0 8.196295158500546e-15
C258 s:205 0 8.195976584881804e-15
C259 s:80 0 7.24705882352941e-15
C260 s:80 0 2.457199284103613e-14
C261 s:203 0 1.6380000000000002e-14
C262 s:203 0 3.2760000000000004e-14
C263 s:201 0 1.6380000000000002e-14
C264 s:201 0 3.2760000000000004e-14
C265 s:199 0 1.6380000000000002e-14
C266 s:199 0 3.2760000000000004e-14
C267 s:197 0 1.6380000000000002e-14
C268 s:197 0 3.2760000000000004e-14
C269 s:195 0 1.6380000000000002e-14
C270 s:195 0 3.2760000000000004e-14
C271 s:193 0 1.6380000000000002e-14
C272 s:193 0 3.2760000000000004e-14
C273 s:191 0 1.6380000000000002e-14
C274 s:191 0 3.2760000000000004e-14
C275 s:189 0 1.6380000000000002e-14
C276 s:189 0 3.2760000000000004e-14
C277 s:187 0 1.6380000000000002e-14
C278 s:187 0 3.2760000000000004e-14
C279 s:185 0 1.6380000000000002e-14
C280 s:185 0 3.2760000000000004e-14
C281 s:183 0 1.6380000000000002e-14
C282 s:183 0 3.2760000000000004e-14
C283 s:181 0 1.6380000000000002e-14
C284 s:181 0 3.2760000000000004e-14
C285 s:179 0 1.6380000000000002e-14
C286 s:179 0 3.2760000000000004e-14
C287 s:177 0 1.6380000000000002e-14