*|DSPF	1.5
*|DESIGN	nmos_dp_19x10x1_222_0
*|DATE	"Wed Jun 19 2025"
*|VENDOR	"Mentor Graphics Corporation"
*|PROGRAM	"Calibre xACT"
*|VERSION	"v2020.4_34.17"
*|DIVIDER	|
*|DELIMITER	:
*|BUSBIT	[]
* Corner Name: 12lp_11M_3Mx_4Cx_2Kx_2Gx_LB_nominal_detailed_25
* Nominal Temperature: 25C
* Circuit Temperature: 25C
*

* Integrated TICER reduction is not enabled.
* SHORT DELAY THRESHOLD: 2e-14
* Fill Mode: NG
* PEX REDUCE CC ABSOLUTE : disabled
* PEX REDUCE CC RATIO : disabled
* Delta transform mode : 344834

.subckt nmos_dp_19x10x1_222_0 b d0 d1 g0 g1 s

* Net:b ----------------


R1 b b:4 1.764
R2 b b:5 1.764
R3 b:5 b:21 1.12
R4 b:5 MN0@0:b 14
R5 b:5 b:20 1.12
R6 b:5 MN0@0:b 14
R7 b:5 b:6 3.528
R8 b:5 MN0@0:b 14
R9 b:6 b:23 1.12
R10 b:6 MN0@0:b 14
R11 b:6 b:22 1.12
R12 b:6 MN0@0:b 14
R13 b:6 b:7 3.528
R14 b:6 MN0@0:b 14
R15 b:7 b:25 1.12
R16 b:7 MN0@0:b 14
R17 b:7 b:24 1.12
R18 b:7 MN0@0:b 14
R19 b:7 b:8 3.528
R20 b:7 MN0@0:b 14
R21 b:8 b:27 1.12
R22 b:8 MN0@0:b 14
R23 b:8 b:26 1.12
R24 b:8 MN0@0:b 14
R25 b:8 b:9 3.528
R26 b:8 MN0@0:b 14
R27 b:9 b:31 1.12
R28 b:9 MN0@0:b 14
R29 b:9 b:30 1.12
R30 b:9 MN0@0:b 14
R31 b:9 b:29 6.412
R32 b:9 MN0@0:b 14
R33 b:4 b:19 1.12
R34 b:4 MN0@0:b 14
R35 b:4 b:18 1.12
R36 b:4 MN0@0:b 14
R37 b:4 b:3 3.528
R38 b:4 MN0@0:b 14
R39 b:3 b:17 1.12
R40 b:3 MN0@0:b 14
R41 b:3 b:16 1.12
R42 b:3 MN0@0:b 14
R43 b:3 b:2 3.528
R44 b:3 MN0@0:b 14
R45 b:2 b:15 1.12
R46 b:2 MN0@0:b 14
R47 b:2 b:14 1.12
R48 b:2 MN0@0:b 14
R49 b:2 b:1 3.528
R50 b:2 MN0@0:b 14
R51 b:1 b:13 1.12
R52 b:1 MN0@0:b 14
R53 b:1 b:12 1.12
R54 b:1 MN0@0:b 14
R55 b:1 b:0 3.528
R56 b:1 MN0@0:b 14
R57 b:0 b:11 1.12
R58 b:0 MN0@0:b 14
R59 b:0 b:10 1.12
R60 b:0 MN0@0:b 14
R61 b:0 b:28 6.412
R62 b:0 MN0@0:b 14
R63 MN0@0:b MN0@1:b 0.01
R64 MN0@1:b MN0@2:b 0.01
R65 MN0@2:b MN0@3:b 0.01
R66 MN0@3:b MN0@4:b 0.01
R67 MN0@4:b MN0@5:b 0.01
R68 MN0@5:b MN0@6:b 0.01
R69 MN0@6:b MN0@7:b 0.01
R70 MN0@7:b MN0@8:b 0.01
R71 MN0@8:b MN0@9:b 0.01
R72 MN0@9:b MN1@0:b 0.01
R73 MN1@0:b MN1@1:b 0.01
R74 MN1@1:b MN1@2:b 0.01
R75 MN1@2:b MN1@3:b 0.01
R76 MN1@3:b MN1@4:b 0.01
R77 MN1@4:b MN1@5:b 0.01
R78 MN1@5:b MN1@6:b 0.01
R79 MN1@6:b MN1@7:b 0.01
R80 MN1@7:b MN1@8:b 0.01
R81 MN1@8:b MN1@9:b 0.01
C1 b:5 0 8.400000000000001e-15
C2 b:5 0 8.400000000000001e-15
C3 b:5 0 2.6460000000000002e-14
C4 b:6 0 8.400000000000001e-15
C5 b:6 0 8.400000000000001e-15
C6 b:6 0 2.6460000000000002e-14
C7 b:7 0 8.400000000000001e-15
C8 b:7 0 8.400000000000001e-15
C9 b:7 0 2.6460000000000002e-14
C10 b:8 0 8.400000000000001e-15
C11 b:8 0 8.400000000000001e-15
C12 b:8 0 2.6460000000000002e-14
C13 b:9 0 8.400000000000001e-15
C14 b:9 0 8.400000000000001e-15
C15 b:9 0 4.809e-14
C16 b:4 0 8.400000000000001e-15
C17 b:4 0 8.400000000000001e-15
C18 b:4 0 2.6460000000000002e-14
C19 b:3 0 8.400000000000001e-15
C20 b:3 0 8.400000000000001e-15
C21 b:3 0 2.6460000000000002e-14
C22 b:2 0 8.400000000000001e-15
C23 b:2 0 8.400000000000001e-15
C24 b:2 0 2.6460000000000002e-14
C25 b:1 0 8.400000000000001e-15
C26 b:1 0 8.400000000000001e-15
C27 b:1 0 2.6460000000000002e-14
C28 b:0 0 8.400000000000001e-15
C29 b:0 0 8.400000000000001e-15
C30 b:0 0 4.809e-14


* Net:s ----------------


R82 s s:89 0.672
R83 s s:88 2.856
R84 s s:13 1.092
R85 s s:12 1.092
R86 s:12 s:22 2.184
R87 s:12 s:48 1.008
R88 s:12 s:9 1.092
R89 s:12 s:10 3.276
R90 s:10 s:95 0.672
R91 s:10 MN1@1:s 14
R92 s:10 s:94 2.856
R93 s:10 MN1@1:s 14
R94 s:10 s:11 4.368
R95 s:10 MN1@1:s 14
R96 s:11 s:101 0.672
R97 s:11 MN1@3:s 14
R98 s:11 s:100 2.856
R99 s:11 MN1@3:s 14
R100 s:11 s:0 4.368
R101 s:11 MN1@3:s 14
R102 s:0 s:107 0.672
R103 s:0 MN1@5:s 14
R104 s:0 s:106 2.856
R105 s:0 MN1@5:s 14
R106 s:0 s:14 4.368
R107 s:0 MN1@5:s 14
R108 s:14 s:113 0.672
R109 s:14 MN1@7:s 14
R110 s:14 s:112 2.856
R111 s:14 MN1@7:s 14
R112 s:14 s:15 4.368
R113 s:14 MN1@7:s 14
R114 s:15 s:119 0.672
R115 s:15 MN1@9:s 14
R116 s:15 s:118 2.856
R117 s:15 MN1@9:s 14
R118 s:15 s:33 1.092
R119 s:15 MN1@9:s 14
R120 s:118 s:117 3.528
R121 s:118 MN1@9:s 14
R122 s:117 s:116 3.528
R123 s:117 MN1@9:s 14
R124 s:116 s:54 3.948
R125 s:116 MN1@9:s 14
R126 s:119 s:25 1.512
R127 s:119 MN1@9:s 14
R128 s:25 s:120 2.016
R129 s:25 MN1@9:s 14
R130 s:25 s:24 4.368
R131 s:25 MN1@9:s 14
R132 s:25 s:35 1.092
R133 s:25 MN1@9:s 14
R134 s:24 s:114 2.016
R135 s:24 MN1@7:s 14
R136 s:24 s:113 1.512
R137 s:24 MN1@7:s 14
R138 s:24 s:1 4.368
R139 s:24 MN1@7:s 14
R140 s:1 s:108 2.016
R141 s:1 MN1@5:s 14
R142 s:1 s:107 1.512
R143 s:1 MN1@5:s 14
R144 s:1 s:21 4.368
R145 s:1 MN1@5:s 14
R146 s:21 s:102 2.016
R147 s:21 MN1@3:s 14
R148 s:21 s:101 1.512
R149 s:21 MN1@3:s 14
R150 s:21 s:20 4.368
R151 s:21 MN1@3:s 14
R152 s:20 s:96 2.016
R153 s:20 MN1@1:s 14
R154 s:20 s:95 1.512
R155 s:20 MN1@1:s 14
R156 s:20 s:22 3.276
R157 s:20 MN1@1:s 14
R158 s:22 s:49 1.008
R159 s:22 s:19 1.092
R160 s:19 s:90 2.016
R161 s:19 MN0@9:s 14
R162 s:19 s:89 1.512
R163 s:19 MN0@9:s 14
R164 s:19 s:23 1.092
R165 s:19 MN0@9:s 14
R166 s:23 s:51 1.008
R167 s:23 s:13 2.184
R168 s:23 s:18 3.276
R169 s:18 s:84 2.016
R170 s:18 MN0@7:s 14
R171 s:18 s:83 1.512
R172 s:18 MN0@7:s 14
R173 s:18 s:17 4.368
R174 s:18 MN0@7:s 14
R175 s:17 s:78 2.016
R176 s:17 MN0@5:s 14
R177 s:17 s:77 1.512
R178 s:17 MN0@5:s 14
R179 s:17 s:16 4.368
R180 s:17 MN0@5:s 14
R181 s:16 s:72 2.016
R182 s:16 MN0@3:s 14
R183 s:16 s:71 1.512
R184 s:16 MN0@3:s 14
R185 s:16 s:5 4.368
R186 s:16 MN0@3:s 14
R187 s:5 s:66 2.016
R188 s:5 MN0@1:s 14
R189 s:5 s:65 1.512
R190 s:5 MN0@1:s 14
R191 s:5 s:3 4.368
R192 s:5 MN0@1:s 14
R193 s:3 s:60 2.016
R194 s:3 MN0@0:s 14
R195 s:3 s:59 1.512
R196 s:3 MN0@0:s 14
R197 s:3 s:34 1.092
R198 s:3 MN0@0:s 14
R199 s:59 s:2 0.672
R200 s:59 MN0@0:s 14
R201 s:2 s:58 2.856
R202 s:2 MN0@0:s 14
R203 s:2 s:32 1.092
R204 s:2 MN0@0:s 14
R205 s:2 s:4 4.368
R206 s:2 MN0@0:s 14
R207 s:4 s:65 0.672
R208 s:4 MN0@1:s 14
R209 s:4 s:64 2.856
R210 s:4 MN0@1:s 14
R211 s:4 s:6 4.368
R212 s:4 MN0@1:s 14
R213 s:6 s:71 0.672
R214 s:6 MN0@3:s 14
R215 s:6 s:70 2.856
R216 s:6 MN0@3:s 14
R217 s:6 s:7 4.368
R218 s:6 MN0@3:s 14
R219 s:7 s:77 0.672
R220 s:7 MN0@5:s 14
R221 s:7 s:76 2.856
R222 s:7 MN0@5:s 14
R223 s:7 s:8 4.368
R224 s:7 MN0@5:s 14
R225 s:8 s:83 0.672
R226 s:8 MN0@7:s 14
R227 s:8 s:82 2.856
R228 s:8 MN0@7:s 14
R229 s:8 s:13 3.276
R230 s:8 MN0@7:s 14
R231 s:13 s:50 1.008
R232 s:13 s:9 1.092
R233 s:9 s:89 0.672
R234 s:9 MN0@9:s 14
R235 s:9 s:88 2.856
R236 s:9 MN0@9:s 14
R237 s:88 s:87 3.528
R238 s:88 MN0@9:s 14
R239 s:87 s:86 3.528
R240 s:87 MN0@9:s 14
R241 s:86 s:42 3.948
R242 s:86 MN0@9:s 14
R243 s:82 s:81 3.528
R244 s:82 MN0@7:s 14
R245 s:81 s:80 3.528
R246 s:81 MN0@7:s 14
R247 s:80 s:40 3.948
R248 s:80 MN0@7:s 14
R249 s:76 s:75 3.528
R250 s:76 MN0@5:s 14
R251 s:75 s:74 3.528
R252 s:75 MN0@5:s 14
R253 s:74 s:38 3.948
R254 s:74 MN0@5:s 14
R255 s:70 s:69 3.528
R256 s:70 MN0@3:s 14
R257 s:69 s:68 3.528
R258 s:69 MN0@3:s 14
R259 s:68 s:36 3.948
R260 s:68 MN0@3:s 14
R261 s:64 s:63 3.528
R262 s:64 MN0@1:s 14
R263 s:63 s:62 3.528
R264 s:63 MN0@1:s 14
R265 s:62 s:30 3.948
R266 s:62 MN0@1:s 14
R267 s:58 s:57 3.528
R268 s:58 MN0@0:s 14
R269 s:57 s:56 3.528
R270 s:57 MN0@0:s 14
R271 s:56 s:28 3.948
R272 s:56 MN0@0:s 14
R273 s:60 s:61 3.528
R274 s:60 MN0@0:s 14
R275 s:61 s:29 3.948
R276 s:61 MN0@0:s 14
R277 s:66 s:67 3.528
R278 s:66 MN0@1:s 14
R279 s:67 s:31 3.948
R280 s:67 MN0@1:s 14
R281 s:72 s:73 3.528
R282 s:72 MN0@3:s 14
R283 s:73 s:37 3.948
R284 s:73 MN0@3:s 14
R285 s:78 s:79 3.528
R286 s:78 MN0@5:s 14
R287 s:79 s:39 3.948
R288 s:79 MN0@5:s 14
R289 s:84 s:85 3.528
R290 s:84 MN0@7:s 14
R291 s:85 s:41 3.948
R292 s:85 MN0@7:s 14
R293 s:90 s:91 3.528
R294 s:90 MN0@9:s 14
R295 s:91 s:43 3.948
R296 s:91 MN0@9:s 14
R297 s:96 s:97 3.528
R298 s:96 MN1@1:s 14
R299 s:97 s:45 3.948
R300 s:97 MN1@1:s 14
R301 s:102 s:103 3.528
R302 s:102 MN1@3:s 14
R303 s:103 s:47 3.948
R304 s:103 MN1@3:s 14
R305 s:108 s:109 3.528
R306 s:108 MN1@5:s 14
R307 s:109 s:27 3.948
R308 s:109 MN1@5:s 14
R309 s:114 s:115 3.528
R310 s:114 MN1@7:s 14
R311 s:115 s:53 3.948
R312 s:115 MN1@7:s 14
R313 s:120 s:121 3.528
R314 s:120 MN1@9:s 14
R315 s:121 s:55 3.948
R316 s:121 MN1@9:s 14
R317 s:112 s:111 3.528
R318 s:112 MN1@7:s 14
R319 s:111 s:110 3.528
R320 s:111 MN1@7:s 14
R321 s:110 s:52 3.948
R322 s:110 MN1@7:s 14
R323 s:106 s:105 3.528
R324 s:106 MN1@5:s 14
R325 s:105 s:104 3.528
R326 s:105 MN1@5:s 14
R327 s:104 s:26 3.948
R328 s:104 MN1@5:s 14
R329 s:100 s:99 3.528
R330 s:100 MN1@3:s 14
R331 s:99 s:98 3.528
R332 s:99 MN1@3:s 14
R333 s:98 s:46 3.948
R334 s:98 MN1@3:s 14
R335 s:94 s:93 3.528
R336 s:94 MN1@1:s 14
R337 s:93 s:92 3.528
R338 s:93 MN1@1:s 14
R339 s:92 s:44 3.948
R340 s:92 MN1@1:s 14
R341 MN0@1:s MN0@2:s 0.01
R342 MN0@3:s MN0@4:s 0.01
R343 MN0@5:s MN0@6:s 0.01
R344 MN0@7:s MN0@8:s 0.01
R345 MN0@9:s MN1@0:s 0.01
R346 MN1@1:s MN1@2:s 0.01
R347 MN1@3:s MN1@4:s 0.01
R348 MN1@5:s MN1@6:s 0.01
R349 MN1@7:s MN1@8:s 0.01
R350 MN1@9:s MN2@0:s 0.01
C31 s:12 0 1.6380000000000002e-14
C32 s:12 0 7.56e-15
C33 s:12 0 8.190000000000001e-15
C34 s:12 0 2.457e-14
C35 s:10 0 5.04e-15
C36 s:10 0 2.1420000000000002e-14
C37 s:10 0 3.2760000000000004e-14
C38 s:11 0 5.04e-15
C39 s:11 0 2.1420000000000002e-14
C40 s:11 0 3.2760000000000004e-14
C41 s:0 0 5.04e-15
C42 s:0 0 2.1420000000000002e-14
C43 s:0 0 3.2760000000000004e-14
C44 s:14 0 5.04e-15
C45 s:14 0 2.1420000000000002e-14
C46 s:14 0 3.2760000000000004e-14
C47 s:15 0 5.04e-15
C48 s:15 0 2.1420000000000002e-14
C49 s:15 0 8.190000000000001e-15
C50 s:118 0 2.6460000000000002e-14
C51 s:117 0 2.6460000000000002e-14
C52 s:116 0 2.961e-14
C53 s:119 0 1.134e-14
C54 s:25 0 1.512e-14
C55 s:25 0 3.2760000000000004e-14
C56 s:25 0 8.190000000000001e-15
C57 s:24 0 1.512e-14
C58 s:24 0 1.134e-14
C59 s:24 0 3.2760000000000004e-14
C60 s:1 0 1.512e-14
C61 s:1 0 1.134e-14
C62 s:1 0 3.2760000000000004e-14
C63 s:21 0 1.512e-14
C64 s:21 0 1.134e-14
C65 s:21 0 3.2760000000000004e-14
C66 s:20 0 1.512e-14
C67 s:20 0 1.134e-14
C68 s:20 0 2.457e-14
C69 s:22 0 7.56e-15
C70 s:22 0 8.190000000000001e-15
C71 s:19 0 1.512e-14
C72 s:19 0 1.134e-14
C73 s:19 0 8.190000000000001e-15
C74 s:23 0 7.56e-15
C75 s:23 0 1.6380000000000002e-14
C76 s:23 0 2.457e-14
C77 s:18 0 1.512e-14
C78 s:18 0 1.134e-14
C79 s:18 0 3.2760000000000004e-14
C80 s:17 0 1.512e-14
C81 s:17 0 1.134e-14
C82 s:17 0 3.2760000000000004e-14
C83 s:16 0 1.512e-14
C84 s:16 0 1.134e-14
C85 s:16 0 3.2760000000000004e-14
C86 s:5 0 1.512e-14
C87 s:5 0 1.134e-14
C88 s:5 0 3.2760000000000004e-14
C89 s:3 0 1.512e-14
C90 s:3 0 1.134e-14
C91 s:3 0 8.190000000000001e-15
C92 s:59 0 5.04e-15
C93 s:2 0 2.1420000000000002e-14
C94 s:2 0 8.190000000000001e-15
C95 s:2 0 3.2760000000000004e-14
C96 s:4 0 5.04e-15
C97 s:4 0 2.1420000000000002e-14
C98 s:4 0 3.2760000000000004e-14
C99 s:6 0 5.04e-15
C100 s:6 0 2.1420000000000002e-14
C101 s:6 0 3.2760000000000004e-14
C102 s:7 0 5.04e-15
C103 s:7 0 2.1420000000000002e-14
C104 s:7 0 3.2760000000000004e-14
C105 s:8 0 5.04e-15
C106 s:8 0 2.1420000000000002e-14
C107 s:8 0 2.457e-14
C108 s:13 0 7.56e-15
C109 s:13 0 8.190000000000001e-15
C110 s:9 0 5.04e-15
C111 s:9 0 2.1420000000000002e-14
C112 s:88 0 2.6460000000000002e-14
C113 s:87 0 2.6460000000000002e-14
C114 s:86 0 2.961e-14
C115 s:82 0 2.6460000000000002e-14
C116 s:81 0 2.6460000000000002e-14
C117 s:80 0 2.961e-14
C118 s:76 0 2.6460000000000002e-14
C119 s:75 0 2.6460000000000002e-14
C120 s:74 0 2.961e-14
C121 s:70 0 2.6460000000000002e-14
C122 s:69 0 2.6460000000000002e-14
C123 s:68 0 2.961e-14
C124 s:64 0 2.6460000000000002e-14
C125 s:63 0 2.6460000000000002e-14
C126 s:62 0 2.961e-14
C127 s:58 0 2.6460000000000002e-14
C128 s:57 0 2.6460000000000002e-14
C129 s:56 0 2.961e-14
C130 s:60 0 2.6460000000000002e-14
C131 s:61 0 2.961e-14
C132 s:66 0 2.6460000000000002e-14
C133 s:67 0 2.961e-14
C134 s:72 0 2.6460000000000002e-14
C135 s:73 0 2.961e-14
C136 s:78 0 2.6460000000000002e-14
C137 s:79 0 2.961e-14
C138 s:84 0 2.6460000000000002e-14
C139 s:85 0 2.961e-14
C140 s:90 0 2.6460000000000002e-14
C141 s:91 0 2.961e-14
C142 s:96 0 2.6460000000000002e-14
C143 s:97 0 2.961e-14
C144 s:102 0 2.6460000000000002e-14
C145 s:103 0 2.961e-14
C146 s:108 0 2.6460000000000002e-14
C147 s:109 0 2.961e-14
C148 s:114 0 2.6460000000000002e-14
C149 s:115 0 2.961e-14
C150 s:120 0 2.6460000000000002e-14
C151 s:121 0 2.961e-14
C152 s:112 0 2.6460000000000002e-14
C153 s:111 0 2.6460000000000002e-14
C154 s:110 0 2.961e-14
C155 s:106 0 2.6460000000000002e-14
C156 s:105 0 2.6460000000000002e-14
C157 s:104 0 2.961e-14
C158 s:100 0 2.6460000000000002e-14
C159 s:99 0 2.6460000000000002e-14
C160 s:98 0 2.961e-14
C161 s:94 0 2.6460000000000002e-14
C162 s:93 0 2.6460000000000002e-14
C163 s:92 0 2.961e-14


* Net:d0 ----------------


R351 d0 d0:46 1.512
R352 d0 d0:45 2.016
R353 d0 d0:11 2.184
R354 d0 d0:13 2.184
R355 d0:13 d0:8 2.184
R356 d0:13 d0:30 1.008
R357 d0:13 d0:9 2.184
R358 d0:13 d0:10 2.184
R359 d0:10 d0:52 1.512
R360 d0:10 MN0@6:d 14
R361 d0:10 d0:51 2.016
R362 d0:10 MN0@6:d 14
R363 d0:10 d0:12 4.368
R364 d0:10 MN0@6:d 14
R365 d0:12 d0:58 1.512
R366 d0:12 MN0@8:d 14
R367 d0:12 d0:57 2.016
R368 d0:12 MN0@8:d 14
R369 d0:12 d0:23 1.008
R370 d0:12 MN0@8:d 14
R371 d0:57 d0:56 3.528
R372 d0:57 MN0@8:d 14
R373 d0:56 d0:28 3.948
R374 d0:56 MN0@8:d 14
R375 d0:58 d0:7 0.672
R376 d0:58 MN0@8:d 14
R377 d0:7 d0:59 2.856
R378 d0:7 MN0@8:d 14
R379 d0:7 d0:5 4.368
R380 d0:7 MN0@8:d 14
R381 d0:7 d0:19 1.008
R382 d0:7 MN0@8:d 14
R383 d0:5 d0:53 2.856
R384 d0:5 MN0@6:d 14
R385 d0:5 d0:52 0.672
R386 d0:5 MN0@6:d 14
R387 d0:5 d0:8 2.184
R388 d0:5 MN0@6:d 14
R389 d0:8 d0:31 1.008
R390 d0:8 d0:4 2.184
R391 d0:4 d0:47 2.856
R392 d0:4 MN0@4:d 14
R393 d0:4 d0:46 0.672
R394 d0:4 MN0@4:d 14
R395 d0:4 d0:6 2.184
R396 d0:4 MN0@4:d 14
R397 d0:6 d0:27 1.008
R398 d0:6 d0:11 2.184
R399 d0:6 d0:2 2.184
R400 d0:2 d0:41 2.856
R401 d0:2 MN0@2:d 14
R402 d0:2 d0:40 0.672
R403 d0:2 MN0@2:d 14
R404 d0:2 d0:0 4.368
R405 d0:2 MN0@2:d 14
R406 d0:0 d0:35 2.856
R407 d0:0 MN0@0:d 14
R408 d0:0 d0:34 0.672
R409 d0:0 MN0@0:d 14
R410 d0:0 d0:18 1.008
R411 d0:0 MN0@0:d 14
R412 d0:34 d0:1 1.512
R413 d0:34 MN0@0:d 14
R414 d0:1 d0:33 2.016
R415 d0:1 MN0@0:d 14
R416 d0:1 d0:22 1.008
R417 d0:1 MN0@0:d 14
R418 d0:1 d0:3 4.368
R419 d0:1 MN0@0:d 14
R420 d0:3 d0:40 1.512
R421 d0:3 MN0@2:d 14
R422 d0:3 d0:39 2.016
R423 d0:3 MN0@2:d 14
R424 d0:3 d0:11 2.184
R425 d0:3 MN0@2:d 14
R426 d0:11 d0:26 1.008
R427 d0:11 d0:9 2.184
R428 d0:9 d0:46 1.512
R429 d0:9 MN0@4:d 14
R430 d0:9 d0:45 2.016
R431 d0:9 MN0@4:d 14
R432 d0:45 d0:44 3.528
R433 d0:45 MN0@4:d 14
R434 d0:44 d0:20 3.948
R435 d0:44 MN0@4:d 14
R436 d0:39 d0:38 3.528
R437 d0:39 MN0@2:d 14
R438 d0:38 d0:16 3.948
R439 d0:38 MN0@2:d 14
R440 d0:33 d0:32 3.528
R441 d0:33 MN0@0:d 14
R442 d0:32 d0:14 3.948
R443 d0:32 MN0@0:d 14
R444 d0:35 d0:36 3.528
R445 d0:35 MN0@0:d 14
R446 d0:36 d0:37 3.528
R447 d0:36 MN0@0:d 14
R448 d0:37 d0:15 3.948
R449 d0:37 MN0@0:d 14
R450 d0:41 d0:42 3.528
R451 d0:41 MN0@2:d 14
R452 d0:42 d0:43 3.528
R453 d0:42 MN0@2:d 14
R454 d0:43 d0:17 3.948
R455 d0:43 MN0@2:d 14
R456 d0:47 d0:48 3.528
R457 d0:47 MN0@4:d 14
R458 d0:48 d0:49 3.528
R459 d0:48 MN0@4:d 14
R460 d0:49 d0:21 3.948
R461 d0:49 MN0@4:d 14
R462 d0:53 d0:54 3.528
R463 d0:53 MN0@6:d 14
R464 d0:54 d0:55 3.528
R465 d0:54 MN0@6:d 14
R466 d0:55 d0:25 3.948
R467 d0:55 MN0@6:d 14
R468 d0:59 d0:60 3.528
R469 d0:59 MN0@8:d 14
R470 d0:60 d0:61 3.528
R471 d0:60 MN0@8:d 14
R472 d0:61 d0:29 3.948
R473 d0:61 MN0@8:d 14
R474 d0:51 d0:50 3.528
R475 d0:51 MN0@6:d 14
R476 d0:50 d0:24 3.948
R477 d0:50 MN0@6:d 14
R478 MN0@0:d MN0@1:d 0.01
R479 MN0@2:d MN0@3:d 0.01
R480 MN0@4:d MN0@5:d 0.01
R481 MN0@6:d MN0@7:d 0.01
R482 MN0@8:d MN0@9:d 0.01
C164 d0:13 0 1.6380000000000002e-14
C165 d0:13 0 7.56e-15
C166 d0:13 0 1.6380000000000002e-14
C167 d0:13 0 1.6380000000000002e-14
C168 d0:10 0 1.134e-14
C169 d0:10 0 1.512e-14
C170 d0:10 0 3.2760000000000004e-14
C171 d0:12 0 1.134e-14
C172 d0:12 0 1.512e-14
C173 d0:12 0 7.56e-15
C174 d0:57 0 2.6460000000000002e-14
C175 d0:56 0 2.961e-14
C176 d0:58 0 5.04e-15
C177 d0:7 0 2.1420000000000002e-14
C178 d0:7 0 3.2760000000000004e-14
C179 d0:7 0 7.56e-15
C180 d0:5 0 2.1420000000000002e-14
C181 d0:5 0 5.04e-15
C182 d0:5 0 1.6380000000000002e-14
C183 d0:8 0 7.56e-15
C184 d0:8 0 1.6380000000000002e-14
C185 d0:4 0 2.1420000000000002e-14
C186 d0:4 0 5.04e-15
C187 d0:4 0 1.6380000000000002e-14
C188 d0:6 0 7.56e-15
C189 d0:6 0 1.6380000000000002e-14
C190 d0:6 0 1.6380000000000002e-14
C191 d0:2 0 2.1420000000000002e-14
C192 d0:2 0 5.04e-15
C193 d0:2 0 3.2760000000000004e-14
C194 d0:0 0 2.1420000000000002e-14
C195 d0:0 0 5.04e-15
C196 d0:0 0 7.56e-15
C197 d0:34 0 1.134e-14
C198 d0:1 0 1.512e-14
C199 d0:1 0 7.56e-15
C200 d0:1 0 3.2760000000000004e-14
C201 d0:3 0 1.134e-14
C202 d0:3 0 1.512e-14
C203 d0:3 0 1.6380000000000002e-14
C204 d0:11 0 7.56e-15
C205 d0:11 0 1.6380000000000002e-14
C206 d0:9 0 1.134e-14
C207 d0:9 0 1.512e-14
C208 d0:45 0 2.6460000000000002e-14
C209 d0:44 0 2.961e-14
C210 d0:39 0 2.6460000000000002e-14
C211 d0:38 0 2.961e-14
C212 d0:33 0 2.6460000000000002e-14
C213 d0:32 0 2.961e-14
C214 d0:35 0 2.6460000000000002e-14
C215 d0:36 0 2.6460000000000002e-14
C216 d0:37 0 2.961e-14
C217 d0:41 0 2.6460000000000002e-14
C218 d0:42 0 2.6460000000000002e-14
C219 d0:43 0 2.961e-14
C220 d0:47 0 2.6460000000000002e-14
C221 d0:48 0 2.6460000000000002e-14
C222 d0:49 0 2.961e-14
C223 d0:53 0 2.6460000000000002e-14
C224 d0:54 0 2.6460000000000002e-14
C225 d0:55 0 2.961e-14
C226 d0:59 0 2.6460000000000002e-14
C227 d0:60 0 2.6460000000000002e-14
C228 d0:61 0 2.961e-14
C229 d0:51 0 2.6460000000000002e-14
C230 d0:50 0 2.961e-14


* Net:d1 ----------------


R483 d1 d1:46 1.512
R484 d1 d1:45 2.016
R485 d1 d1:8 2.184
R486 d1 d1:10 2.184
R487 d1:10 d1:3 2.184
R488 d1:10 d1:24 1.008
R489 d1:10 d1:11 2.184
R490 d1:10 d1:12 2.184
R491 d1:12 d1:52 1.512
R492 d1:12 MN1@6:d 14
R493 d1:12 d1:51 2.016
R494 d1:12 MN1@6:d 14
R495 d1:12 d1:13 4.368
R496 d1:12 MN1@6:d 14
R497 d1:13 d1:58 1.512
R498 d1:13 MN1@8:d 14
R499 d1:13 d1:57 2.016
R500 d1:13 MN1@8:d 14
R501 d1:13 d1:17 1.008
R502 d1:13 MN1@8:d 14
R503 d1:57 d1:56 3.528
R504 d1:57 MN1@8:d 14
R505 d1:56 d1:30 3.948
R506 d1:56 MN1@8:d 14
R507 d1:58 d1:6 0.672
R508 d1:58 MN1@8:d 14
R509 d1:6 d1:59 2.856
R510 d1:6 MN1@8:d 14
R511 d1:6 d1:5 4.368
R512 d1:6 MN1@8:d 14
R513 d1:6 d1:15 1.008
R514 d1:6 MN1@8:d 14
R515 d1:5 d1:53 2.856
R516 d1:5 MN1@6:d 14
R517 d1:5 d1:52 0.672
R518 d1:5 MN1@6:d 14
R519 d1:5 d1:3 2.184
R520 d1:5 MN1@6:d 14
R521 d1:3 d1:25 1.008
R522 d1:3 d1:4 2.184
R523 d1:4 d1:47 2.856
R524 d1:4 MN1@4:d 14
R525 d1:4 d1:46 0.672
R526 d1:4 MN1@4:d 14
R527 d1:4 d1:1 2.184
R528 d1:4 MN1@4:d 14
R529 d1:1 d1:21 1.008
R530 d1:1 d1:8 2.184
R531 d1:1 d1:2 2.184
R532 d1:2 d1:41 2.856
R533 d1:2 MN1@2:d 14
R534 d1:2 d1:40 0.672
R535 d1:2 MN1@2:d 14
R536 d1:2 d1:0 4.368
R537 d1:2 MN1@2:d 14
R538 d1:0 d1:35 2.856
R539 d1:0 MN1@0:d 14
R540 d1:0 d1:34 0.672
R541 d1:0 MN1@0:d 14
R542 d1:0 d1:14 1.008
R543 d1:0 MN1@0:d 14
R544 d1:34 d1:7 1.512
R545 d1:34 MN1@0:d 14
R546 d1:7 d1:33 2.016
R547 d1:7 MN1@0:d 14
R548 d1:7 d1:16 1.008
R549 d1:7 MN1@0:d 14
R550 d1:7 d1:9 4.368
R551 d1:7 MN1@0:d 14
R552 d1:9 d1:40 1.512
R553 d1:9 MN1@2:d 14
R554 d1:9 d1:39 2.016
R555 d1:9 MN1@2:d 14
R556 d1:9 d1:8 2.184
R557 d1:9 MN1@2:d 14
R558 d1:8 d1:20 1.008
R559 d1:8 d1:11 2.184
R560 d1:11 d1:46 1.512
R561 d1:11 MN1@4:d 14
R562 d1:11 d1:45 2.016
R563 d1:11 MN1@4:d 14
R564 d1:45 d1:44 3.528
R565 d1:45 MN1@4:d 14
R566 d1:44 d1:26 3.948
R567 d1:44 MN1@4:d 14
R568 d1:39 d1:38 3.528
R569 d1:39 MN1@2:d 14
R570 d1:38 d1:22 3.948
R571 d1:38 MN1@2:d 14
R572 d1:33 d1:32 3.528
R573 d1:33 MN1@0:d 14
R574 d1:32 d1:18 3.948
R575 d1:32 MN1@0:d 14
R576 d1:35 d1:36 3.528
R577 d1:35 MN1@0:d 14
R578 d1:36 d1:37 3.528
R579 d1:36 MN1@0:d 14
R580 d1:37 d1:19 3.948
R581 d1:37 MN1@0:d 14
R582 d1:41 d1:42 3.528
R583 d1:41 MN1@2:d 14
R584 d1:42 d1:43 3.528
R585 d1:42 MN1@2:d 14
R586 d1:43 d1:23 3.948
R587 d1:43 MN1@2:d 14
R588 d1:47 d1:48 3.528
R589 d1:47 MN1@4:d 14
R590 d1:48 d1:49 3.528
R591 d1:48 MN1@4:d 14
R592 d1:49 d1:27 3.948
R593 d1:49 MN1@4:d 14
R594 d1:53 d1:54 3.528
R595 d1:53 MN1@6:d 14
R596 d1:54 d1:55 3.528
R597 d1:54 MN1@6:d 14
R598 d1:55 d1:29 3.948
R599 d1:55 MN1@6:d 14
R600 d1:59 d1:60 3.528
R601 d1:59 MN1@8:d 14
R602 d1:60 d1:61 3.528
R603 d1:60 MN1@8:d 14
R604 d1:61 d1:31 3.948
R605 d1:61 MN1@8:d 14
R606 d1:51 d1:50 3.528
R607 d1:51 MN1@6:d 14
R608 d1:50 d1:28 3.948
R609 d1:50 MN1@6:d 14
R610 MN1@0:d MN1@1:d 0.01
R611 MN1@2:d MN1@3:d 0.01
R612 MN1@4:d MN1@5:d 0.01
R613 MN1@6:d MN1@7:d 0.01
R614 MN1@8:d MN1@9:d 0.01
C231 d1:10 0 1.6380000000000002e-14
C232 d1:10 0 7.56e-15
C233 d1:10 0 1.6380000000000002e-14
C234 d1:10 0 1.6380000000000002e-14
C235 d1:12 0 1.134e-14
C236 d1:12 0 1.512e-14
C237 d1:12 0 3.2760000000000004e-14
C238 d1:13 0 1.134e-14
C239 d1:13 0 1.512e-14
C240 d1:13 0 7.56e-15
C241 d1:57 0 2.6460000000000002e-14
C242 d1:56 0 2.961e-14
C243 d1:58 0 5.04e-15
C244 d1:6 0 2.1420000000000002e-14
C245 d1:6 0 3.2760000000000004e-14
C246 d1:6 0 7.56e-15
C247 d1:5 0 2.1420000000000002e-14
C248 d1:5 0 5.04e-15
C249 d1:5 0 1.6380000000000002e-14
C250 d1:3 0 7.56e-15
C251 d1:3 0 1.6380000000000002e-14
C252 d1:4 0 2.1420000000000002e-14
C253 d1:4 0 5.04e-15
C254 d1:4 0 1.6380000000000002e-14
C255 d1:1 0 7.56e-15
C256 d1:1 0 1.6380000000000002e-14
C257 d1:1 0 1.6380000000000002e-14
C258 d1:2 0 2.1420000000000002e-14
C259 d1:2 0 5.04e-15
C260 d1:2 0 3.2760000000000004e-14
C261 d1:0 0 2.1420000000000002e-14
C262 d1:0 0 5.04e-15
C263 d1:0 0 7.56e-15
C264 d1:34 0 1.134e-14
C265 d1:7 0 1.512e-14
C266 d1:7 0 7.56e-15
C267 d1:7 0 3.2760000000000004e-14
C268 d1:9 0 1.134e-14
C269 d1:9 0 1.512e-14
C270 d1:9 0 1.6380000000000002e-14
C271 d1:8 0 7.56e-15
C272 d1:8 0 1.6380000000000002e-14
C273 d1:11 0 1.134e-14
C274 d1:11 0 1.512e-14
C275 d1:45 0 2.6460000000000002e-14
C276 d1:44 0 2.961e-14
C277 d1:39 0 2.6460000000000002e-14
C278 d1:38 0 2.961e-14
C279 d1:33 0 2.6460000000000002e-14
C280 d1:32 0 2.961e-14
C281 d1:35 0 2.6460000000000002e-14
C282 d1:36 0 2.6460000000000002e-14
C283 d1:37 0 2.961e-14
C284 d1:41 0 2.6460000000000002e-14
C285 d1:42 0 2.6460000000000002e-14
C286 d1:43 0 2.961e-14
C287 d1:47 0 2.6460000000000002e-14
C288 d1:48 0 2.6460000000000002e-14
C289 d1:49 0 2.961e-14
C290 d1:53 0 2.6460000000000002e-14
C291 d1:54 0 2.6460000000000002e-14
C292 d1:55 0 2.961e-14
C293 d1:59 0 2.6460000000000002e-14
C294 d1:60 0 2.6460000000000002e-14
C295 d1:61 0 2.961e-14
C296 d1:51 0 2.6460000000000002e-14
C297 d1:50 0 2.961e-14


* Net:g0 ----------------


R615 g0 g0:8 1.106
R616 g0 g0:1 0.014
R617 g0 g0:0 3.528
R618 g0 g0:2 3.528
R619 g0:2 g0:10 1.12
R620 g0:2 MN0@0:g 342
R621 g0:2 MN0@1:g 342
R622 g0:2 MN0@2:g 342
R623 g0:2 MN0@3:g 342
R624 g0:2 MN0@4:g 342
R625 g0:2 MN0@5:g 342
R626 g0:2 MN0@6:g 342
R627 g0:2 MN0@7:g 342
R628 g0:2 MN0@8:g 342
R629 g0:2 MN0@9:g 342
R630 g0:2 g0:9 1.12
R631 g0:2 MN0@0:g 342
R632 g0:2 MN0@1:g 342
R633 g0:2 MN0@2:g 342
R634 g0:2 MN0@3:g 342
R635 g0:2 MN0@4:g 342
R636 g0:2 MN0@5:g 342
R637 g0:2 MN0@6:g 342
R638 g0:2 MN0@7:g 342
R639 g0:2 MN0@8:g 342
R640 g0:2 MN0@9:g 342
R641 g0:2 g0:1 3.528
R642 g0:2 MN0@0:g 342
R643 g0:2 MN0@1:g 342
R644 g0:2 MN0@2:g 342
R645 g0:2 MN0@3:g 342
R646 g0:2 MN0@4:g 342
R647 g0:2 MN0@5:g 342
R648 g0:2 MN0@6:g 342
R649 g0:2 MN0@7:g 342
R650 g0:2 MN0@8:g 342
R651 g0:2 MN0@9:g 342
R652 g0:2 g0:3 3.528
R653 g0:2 MN0@0:g 342
R654 g0:2 MN0@1:g 342
R655 g0:2 MN0@2:g 342
R656 g0:2 MN0@3:g 342
R657 g0:2 MN0@4:g 342
R658 g0:2 MN0@5:g 342
R659 g0:2 MN0@6:g 342
R660 g0:2 MN0@7:g 342
R661 g0:2 MN0@8:g 342
R662 g0:2 MN0@9:g 342
R663 g0:3 g0:12 1.12
R664 g0:3 MN0@0:g 342
R665 g0:3 MN0@1:g 342
R666 g0:3 MN0@2:g 342
R667 g0:3 MN0@3:g 342
R668 g0:3 MN0@4:g 342
R669 g0:3 MN0@5:g 342
R670 g0:3 MN0@6:g 342
R671 g0:3 MN0@7:g 342
R672 g0:3 MN0@8:g 342
R673 g0:3 MN0@9:g 342
R674 g0:3 g0:11 1.12
R675 g0:3 MN0@0:g 342
R676 g0:3 MN0@1:g 342
R677 g0:3 MN0@2:g 342
R678 g0:3 MN0@3:g 342
R679 g0:3 MN0@4:g 342
R680 g0:3 MN0@5:g 342
R681 g0:3 MN0@6:g 342
R682 g0:3 MN0@7:g 342
R683 g0:3 MN0@8:g 342
R684 g0:3 MN0@9:g 342
R685 g0:3 g0:14 2.856
R686 g0:3 MN0@0:g 342
R687 g0:3 MN0@1:g 342
R688 g0:3 MN0@2:g 342
R689 g0:3 MN0@3:g 342
R690 g0:3 MN0@4:g 342
R691 g0:3 MN0@5:g 342
R692 g0:3 MN0@6:g 342
R693 g0:3 MN0@7:g 342
R694 g0:3 MN0@8:g 342
R695 g0:3 MN0@9:g 342
R696 g0:1 g0:7 1.12
R697 g0:1 MN0@0:g 342
R698 g0:1 MN0@1:g 342
R699 g0:1 MN0@2:g 342
R700 g0:1 MN0@3:g 342
R701 g0:1 MN0@4:g 342
R702 g0:1 MN0@5:g 342
R703 g0:1 MN0@6:g 342
R704 g0:1 MN0@7:g 342
R705 g0:1 MN0@8:g 342
R706 g0:1 MN0@9:g 342
R707 g0:1 g0:0 3.528
R708 g0:1 MN0@0:g 342
R709 g0:1 MN0@1:g 342
R710 g0:1 MN0@2:g 342
R711 g0:1 MN0@3:g 342
R712 g0:1 MN0@4:g 342
R713 g0:1 MN0@5:g 342
R714 g0:1 MN0@6:g 342
R715 g0:1 MN0@7:g 342
R716 g0:1 MN0@8:g 342
R717 g0:1 MN0@9:g 342
R718 g0:0 g0:6 1.12
R719 g0:0 MN0@0:g 342
R720 g0:0 MN0@1:g 342
R721 g0:0 MN0@2:g 342
R722 g0:0 MN0@3:g 342
R723 g0:0 MN0@4:g 342
R724 g0:0 MN0@5:g 342
R725 g0:0 MN0@6:g 342
R726 g0:0 MN0@7:g 342
R727 g0:0 MN0@8:g 342
R728 g0:0 MN0@9:g 342
R729 g0:0 g0:5 1.12
R730 g0:0 MN0@0:g 342
R731 g0:0 MN0@1:g 342
R732 g0:0 MN0@2:g 342
R733 g0:0 MN0@3:g 342
R734 g0:0 MN0@4:g 342
R735 g0:0 MN0@5:g 342
R736 g0:0 MN0@6:g 342
R737 g0:0 MN0@7:g 342
R738 g0:0 MN0@8:g 342
R739 g0:0 MN0@9:g 342
R740 g0:0 g0:4 3.528
R741 g0:0 MN0@0:g 342
R742 g0:0 MN0@1:g 342
R743 g0:0 MN0@2:g 342
R744 g0:0 MN0@3:g 342
R745 g0:0 MN0@4:g 342
R746 g0:0 MN0@5:g 342
R747 g0:0 MN0@6:g 342
R748 g0:0 MN0@7:g 342
R749 g0:0 MN0@8:g 342
R750 g0:0 MN0@9:g 342
R751 g0:4 g0:16 1.12
R752 g0:4 MN0@0:g 342
R753 g0:4 MN0@1:g 342
R754 g0:4 MN0@2:g 342
R755 g0:4 MN0@3:g 342
R756 g0:4 MN0@4:g 342
R757 g0:4 MN0@5:g 342
R758 g0:4 MN0@6:g 342
R759 g0:4 MN0@7:g 342
R760 g0:4 MN0@8:g 342
R761 g0:4 MN0@9:g 342
R762 g0:4 g0:15 1.12
R763 g0:4 MN0@0:g 342
R764 g0:4 MN0@1:g 342
R765 g0:4 MN0@2:g 342
R766 g0:4 MN0@3:g 342
R767 g0:4 MN0@4:g 342
R768 g0:4 MN0@5:g 342
R769 g0:4 MN0@6:g 342
R770 g0:4 MN0@7:g 342
R771 g0:4 MN0@8:g 342
R772 g0:4 MN0@9:g 342
R773 g0:4 g0:13 2.856
R774 g0:4 MN0@0:g 342
R775 g0:4 MN0@1:g 342
R776 g0:4 MN0@2:g 342
R777 g0:4 MN0@3:g 342
R778 g0:4 MN0@4:g 342
R779 g0:4 MN0@5:g 342
R780 g0:4 MN0@6:g 342
R781 g0:4 MN0@7:g 342
R782 g0:4 MN0@8:g 342
R783 g0:4 MN0@9:g 342
C298 g0:2 0 8.400000000000001e-15
C299 g0:2 0 8.400000000000001e-15
C300 g0:2 0 2.6460000000000002e-14
C301 g0:2 0 2.6460000000000002e-14
C302 g0:3 0 8.400000000000001e-15
C303 g0:3 0 8.400000000000001e-15
C304 g0:3 0 2.1420000000000002e-14
C305 g0:1 0 8.400000000000001e-15
C306 g0:1 0 2.6460000000000002e-14
C307 g0:0 0 8.400000000000001e-15
C308 g0:0 0 8.400000000000001e-15
C309 g0:0 0 2.6460000000000002e-14
C310 g0:4 0 8.400000000000001e-15
C311 g0:4 0 8.400000000000001e-15
C312 g0:4 0 2.1420000000000002e-14


* Net:g1 ----------------


R784 g1 g1:10 1.106
R785 g1 g1:2 0.014
R786 g1 g1:1 3.528
R787 g1 g1:3 3.528
R788 g1:3 g1:12 1.12
R789 g1:3 MN1@0:g 342
R790 g1:3 MN1@1:g 342
R791 g1:3 MN1@2:g 342
R792 g1:3 MN1@3:g 342
R793 g1:3 MN1@4:g 342
R794 g1:3 MN1@5:g 342
R795 g1:3 MN1@6:g 342
R796 g1:3 MN1@7:g 342
R797 g1:3 MN1@8:g 342
R798 g1:3 MN1@9:g 342
R799 g1:3 g1:11 1.12
R800 g1:3 MN1@0:g 342
R801 g1:3 MN1@1:g 342
R802 g1:3 MN1@2:g 342
R803 g1:3 MN1@3:g 342
R804 g1:3 MN1@4:g 342
R805 g1:3 MN1@5:g 342
R806 g1:3 MN1@6:g 342
R807 g1:3 MN1@7:g 342
R808 g1:3 MN1@8:g 342
R809 g1:3 MN1@9:g 342
R810 g1:3 g1:2 3.528
R811 g1:3 MN1@0:g 342
R812 g1:3 MN1@1:g 342
R813 g1:3 MN1@2:g 342
R814 g1:3 MN1@3:g 342
R815 g1:3 MN1@4:g 342
R816 g1:3 MN1@5:g 342
R817 g1:3 MN1@6:g 342
R818 g1:3 MN1@7:g 342
R819 g1:3 MN1@8:g 342
R820 g1:3 MN1@9:g 342
R821 g1:3 g1:4 3.528
R822 g1:3 MN1@0:g 342
R823 g1:3 MN1@1:g 342
R824 g1:3 MN1@2:g 342
R825 g1:3 MN1@3:g 342
R826 g1:3 MN1@4:g 342
R827 g1:3 MN1@5:g 342
R828 g1:3 MN1@6:g 342
R829 g1:3 MN1@7:g 342
R830 g1:3 MN1@8:g 342
R831 g1:3 MN1@9:g 342
R832 g1:4 g1:14 1.12
R833 g1:4 MN1@0:g 342
R834 g1:4 MN1@1:g 342
R835 g1:4 MN1@2:g 342
R836 g1:4 MN1@3:g 342
R837 g1:4 MN1@4:g 342
R838 g1:4 MN1@5:g 342
R839 g1:4 MN1@6:g 342
R840 g1:4 MN1@7:g 342
R841 g1:4 MN1@8:g 342
R842 g1:4 MN1@9:g 342
R843 g1:4 g1:13 1.12
R844 g1:4 MN1@0:g 342
R845 g1:4 MN1@1:g 342
R846 g1:4 MN1@2:g 342
R847 g1:4 MN1@3:g 342
R848 g1:4 MN1@4:g 342
R849 g1:4 MN1@5:g 342
R850 g1:4 MN1@6:g 342
R851 g1:4 MN1@7:g 342
R852 g1:4 MN1@8:g 342
R853 g1:4 MN1@9:g 342
R854 g1:4 g1:16 2.856
R855 g1:4 MN1@0:g 342
R856 g1:4 MN1@1:g 342
R857 g1:4 MN1@2:g 342
R858 g1:4 MN1@3:g 342
R859 g1:4 MN1@4:g 342
R860 g1:4 MN1@5:g 342
R861 g1:4 MN1@6:g 342
R862 g1:4 MN1@7:g 342
R863 g1:4 MN1@8:g 342
R864 g1:4 MN1@9:g 342
R865 g1:2 g1:9 1.12
R866 g1:2 MN1@0:g 342
R867 g1:2 MN1@1:g 342
R868 g1:2 MN1@2:g 342
R869 g1:2 MN1@3:g 342
R870 g1:2 MN1@4:g 342
R871 g1:2 MN1@5:g 342
R872 g1:2 MN1@6:g 342
R873 g1:2 MN1@7:g 342
R874 g1:2 MN1@8:g 342
R875 g1:2 MN1@9:g 342
R876 g1:2 g1:1 3.528
R877 g1:2 MN1@0:g 342
R878 g1:2 MN1@1:g 342
R879 g1:2 MN1@2:g 342
R880 g1:2 MN1@3:g 342
R881 g1:2 MN1@4:g 342
R882 g1:2 MN1@5:g 342
R883 g1:2 MN1@6:g 342
R884 g1:2 MN1@7:g 342
R885 g1:2 MN1@8:g 342
R886 g1:2 MN1@9:g 342
R887 g1:1 g1:8 1.12
R888 g1:1 MN1@0:g 342
R889 g1:1 MN1@1:g 342
R890 g1:1 MN1@2:g 342
R891 g1:1 MN1@3:g 342
R892 g1:1 MN1@4:g 342
R893 g1:1 MN1@5:g 342
R894 g1:1 MN1@6:g 342
R895 g1:1 MN1@7:g 342
R896 g1:1 MN1@8:g 342
R897 g1:1 MN1@9:g 342
R898 g1:1 g1:7 1.12
R899 g1:1 MN1@0:g 342
R900 g1:1 MN1@1:g 342
R901 g1:1 MN1@2:g 342
R902 g1:1 MN1@3:g 342
R903 g1:1 MN1@4:g 342
R904 g1:1 MN1@5:g 342
R905 g1:1 MN1@6:g 342
R906 g1:1 MN1@7:g 342
R907 g1:1 MN1@8:g 342
R908 g1:1 MN1@9:g 342
R909 g1:1 g1:0 3.528
R910 g1:1 MN1@0:g 342
R911 g1:1 MN1@1:g 342
R912 g1:1 MN1@2:g 342
R913 g1:1 MN1@3:g 342
R914 g1:1 MN1@4:g 342
R915 g1:1 MN1@5:g 342
R916 g1:1 MN1@6:g 342
R917 g1:1 MN1@7:g 342
R918 g1:1 MN1@8:g 342
R919 g1:1 MN1@9:g 342
R920 g1:0 g1:6 1.12
R921 g1:0 MN1@0:g 342
R922 g1:0 MN1@1:g 342
R923 g1:0 MN1@2:g 342
R924 g1:0 MN1@3:g 342
R925 g1:0 MN1@4:g 342
R926 g1:0 MN1@5:g 342
R927 g1:0 MN1@6:g 342
R928 g1:0 MN1@7:g 342
R929 g1:0 MN1@8:g 342
R930 g1:0 MN1@9:g 342
R931 g1:0 g1:5 1.12
R932 g1:0 MN1@0:g 342
R933 g1:0 MN1@1:g 342
R934 g1:0 MN1@2:g 342
R935 g1:0 MN1@3:g 342
R936 g1:0 MN1@4:g 342
R937 g1:0 MN1@5:g 342
R938 g1:0 MN1@6:g 342