*|DSPF	1.5
*|DESIGN	nmos_cm_3x25x1_111_3
*|DATE	"Wed Jun 19 2025"
*|VENDOR	"Mentor Graphics Corporation"
*|PROGRAM	"Calibre xACT"
*|VERSION	"v2020.4_34.17"
*|DIVIDER	|
*|DELIMITER	:
*|BUSBIT	[]
* Corner Name: 12lp_11M_3Mx_4Cx_2Kx_2Gx_LB_nominal_detailed_25
* Nominal Temperature: 25C
* Circuit Temperature: 25C
*

* Integrated TICER reduction is not enabled.
* SHORT DELAY THRESHOLD: 2e-14
* Fill Mode: NG
* PEX REDUCE CC ABSOLUTE : disabled
* PEX REDUCE CC RATIO : disabled
* Delta transform mode : 344834

.subckt nmos_cm_3x25x1_111_3 d0 d1 s

* Net:s ----------------


R1 s s:100 11.2
R2 s s:306 1.008
R3 s s:49 7.644
R4 s s:51 5.46
R5 s:51 s:205 1.848
R6 s:51 MN1@12:s 14
R7 s:51 s:204 6.216
R8 s:51 MN1@12:s 14
R9 s:51 s:101 5.46
R10 s:51 MN1@12:s 14
R11 s:51 s:53 13.104
R12 s:51 MN1@12:s 14
R13 s:53 s:209 1.848
R14 s:53 MN0@13:s 14
R15 s:53 s:208 6.216
R16 s:53 MN0@13:s 14
R17 s:53 s:55 13.104
R18 s:53 MN0@13:s 14
R19 s:55 s:213 1.848
R20 s:55 MN1@13:s 14
R21 s:55 s:212 6.216
R22 s:55 MN1@13:s 14
R23 s:55 s:57 13.104
R24 s:55 MN1@13:s 14
R25 s:57 s:217 1.848
R26 s:57 MN0@14:s 14
R27 s:57 s:216 6.216
R28 s:57 MN0@14:s 14
R29 s:57 s:59 13.104
R30 s:57 MN0@14:s 14
R31 s:59 s:221 1.848
R32 s:59 MN1@14:s 14
R33 s:59 s:220 6.216
R34 s:59 MN1@14:s 14
R35 s:59 s:61 13.104
R36 s:59 MN1@14:s 14
R37 s:61 s:225 1.848
R38 s:61 MN0@15:s 14
R39 s:61 s:224 6.216
R40 s:61 MN0@15:s 14
R41 s:61 s:63 13.104
R42 s:61 MN0@15:s 14
R43 s:63 s:229 1.848
R44 s:63 MN1@15:s 14
R45 s:63 s:228 6.216
R46 s:63 MN1@15:s 14
R47 s:63 s:65 13.104
R48 s:63 MN1@15:s 14
R49 s:65 s:233 1.848
R50 s:65 MN0@16:s 14
R51 s:65 s:232 6.216
R52 s:65 MN0@16:s 14
R53 s:65 s:67 13.104
R54 s:65 MN0@16:s 14
R55 s:67 s:237 1.848
R56 s:67 MN1@16:s 14
R57 s:67 s:236 6.216
R58 s:67 MN1@16:s 14
R59 s:67 s:69 13.104
R60 s:67 MN1@16:s 14
R61 s:69 s:241 1.848
R62 s:69 MN0@17:s 14
R63 s:69 s:240 6.216
R64 s:69 MN0@17:s 14
R65 s:69 s:71 13.104
R66 s:69 MN0@17:s 14
R67 s:71 s:245 1.848
R68 s:71 MN1@17:s 14
R69 s:71 s:244 6.216
R70 s:71 MN1@17:s 14
R71 s:71 s:73 13.104
R72 s:71 MN1@17:s 14
R73 s:73 s:249 1.848
R74 s:73 MN0@18:s 14
R75 s:73 s:248 6.216
R76 s:73 MN0@18:s 14
R77 s:73 s:75 13.104
R78 s:73 MN0@18:s 14
R79 s:75 s:253 1.848
R80 s:75 MN1@18:s 14
R81 s:75 s:252 6.216
R82 s:75 MN1@18:s 14
R83 s:75 s:77 13.104
R84 s:75 MN1@18:s 14
R85 s:77 s:257 1.848
R86 s:77 MN0@19:s 14
R87 s:77 s:256 6.216
R88 s:77 MN0@19:s 14
R89 s:77 s:79 13.104
R90 s:77 MN0@19:s 14
R91 s:79 s:261 1.848
R92 s:79 MN1@19:s 14
R93 s:79 s:260 6.216
R94 s:79 MN1@19:s 14
R95 s:79 s:81 13.104
R96 s:79 MN1@19:s 14
R97 s:81 s:265 1.848
R98 s:81 MN0@20:s 14
R99 s:81 s:264 6.216
R100 s:81 MN0@20:s 14
R101 s:81 s:83 13.104
R102 s:81 MN0@20:s 14
R103 s:83 s:269 1.848
R104 s:83 MN1@20:s 14
R105 s:83 s:268 6.216
R106 s:83 MN1@20:s 14
R107 s:83 s:85 13.104
R108 s:83 MN1@20:s 14
R109 s:85 s:273 1.848
R110 s:85 MN0@21:s 14
R111 s:85 s:272 6.216
R112 s:85 MN0@21:s 14
R113 s:85 s:87 13.104
R114 s:85 MN0@21:s 14
R115 s:87 s:277 1.848
R116 s:87 MN1@21:s 14
R117 s:87 s:276 6.216
R118 s:87 MN1@21:s 14
R119 s:87 s:89 13.104
R120 s:87 MN1@21:s 14
R121 s:89 s:281 1.848
R122 s:89 MN0@22:s 14
R123 s:89 s:280 6.216
R124 s:89 MN0@22:s 14
R125 s:89 s:91 13.104
R126 s:89 MN0@22:s 14
R127 s:91 s:285 1.848
R128 s:91 MN1@22:s 14
R129 s:91 s:284 6.216
R130 s:91 MN1@22:s 14
R131 s:91 s:93 13.104
R132 s:91 MN1@22:s 14
R133 s:93 s:289 1.848
R134 s:93 MN0@23:s 14
R135 s:93 s:288 6.216
R136 s:93 MN0@23:s 14
R137 s:93 s:95 13.104
R138 s:93 MN0@23:s 14
R139 s:95 s:293 1.848
R140 s:95 MN1@23:s 14
R141 s:95 s:292 6.216
R142 s:95 MN1@23:s 14
R143 s:95 s:97 13.104
R144 s:95 MN1@23:s 14
R145 s:97 s:297 1.848
R146 s:97 MN0@24:s 14
R147 s:97 s:296 6.216
R148 s:97 MN0@24:s 14
R149 s:97 s:99 13.104
R150 s:97 MN0@24:s 14
R151 s:99 s:301 1.848
R152 s:99 MN1@24:s 14
R153 s:99 s:300 6.216
R154 s:99 MN1@24:s 14
R155 s:99 s:305 3.192
R156 s:99 MN1@24:s 14
R157 s:101 s:100 11.2
R158 s:101 s:306 1.008
R159 s:101 s:49 7.644
R160 s:49 s:201 1.848
R161 s:49 MN0@12:s 14
R162 s:49 s:200 6.216
R163 s:49 MN0@12:s 14
R164 s:49 s:47 13.104
R165 s:49 MN0@12:s 14
R166 s:47 s:197 1.848
R167 s:47 MN1@11:s 14
R168 s:47 s:196 6.216
R169 s:47 MN1@11:s 14
R170 s:47 s:45 13.104
R171 s:47 MN1@11:s 14
R172 s:45 s:193 1.848
R173 s:45 MN0@11:s 14
R174 s:45 s:192 6.216
R175 s:45 MN0@11:s 14
R176 s:45 s:43 13.104
R177 s:45 MN0@11:s 14
R178 s:43 s:189 1.848
R179 s:43 MN1@10:s 14
R180 s:43 s:188 6.216
R181 s:43 MN1@10:s 14
R182 s:43 s:41 13.104
R183 s:43 MN1@10:s 14
R184 s:41 s:185 1.848
R185 s:41 MN0@10:s 14
R186 s:41 s:184 6.216
R187 s:41 MN0@10:s 14
R188 s:41 s:39 13.104
R189 s:41 MN0@10:s 14
R190 s:39 s:181 1.848
R191 s:39 MN1@9:s 14
R192 s:39 s:180 6.216
R193 s:39 MN1@9:s 14
R194 s:39 s:37 13.104
R195 s:39 MN1@9:s 14
R196 s:37 s:177 1.848
R197 s:37 MN0@9:s 14
R198 s:37 s:176 6.216
R199 s:37 MN0@9:s 14
R200 s:37 s:35 13.104
R201 s:37 MN0@9:s 14
R202 s:35 s:173 1.848
R203 s:35 MN1@8:s 14
R204 s:35 s:172 6.216
R205 s:35 MN1@8:s 14
R206 s:35 s:33 13.104
R207 s:35 MN1@8:s 14
R208 s:33 s:169 1.848
R209 s:33 MN0@8:s 14
R210 s:33 s:168 6.216
R211 s:33 MN0@8:s 14
R212 s:33 s:31 13.104
R213 s:33 MN0@8:s 14
R214 s:31 s:165 1.848
R215 s:31 MN1@7:s 14
R216 s:31 s:164 6.216
R217 s:31 MN1@7:s 14
R218 s:31 s:29 13.104
R219 s:31 MN1@7:s 14
R220 s:29 s:161 1.848
R221 s:29 MN0@7:s 14
R222 s:29 s:160 6.216
R223 s:29 MN0@7:s 14
R224 s:29 s:27 13.104
R225 s:29 MN0@7:s 14
R226 s:27 s:157 1.848
R227 s:27 MN1@6:s 14
R228 s:27 s:156 6.216
R229 s:27 MN1@6:s 14
R230 s:27 s:25 13.104
R231 s:27 MN1@6:s 14
R232 s:25 s:153 1.848
R233 s:25 MN0@6:s 14
R234 s:25 s:152 6.216
R235 s:25 MN0@6:s 14
R236 s:25 s:23 13.104
R237 s:25 MN0@6:s 14
R238 s:23 s:149 1.848
R239 s:23 MN1@5:s 14
R240 s:23 s:148 6.216
R241 s:23 MN1@5:s 14
R242 s:23 s:21 13.104
R243 s:23 MN1@5:s 14
R244 s:21 s:145 1.848
R245 s:21 MN0@5:s 14
R246 s:21 s:144 6.216
R247 s:21 MN0@5:s 14
R248 s:21 s:19 13.104
R249 s:21 MN0@5:s 14
R250 s:19 s:141 1.848
R251 s:19 MN1@4:s 14
R252 s:19 s:140 6.216
R253 s:19 MN1@4:s 14
R254 s:19 s:17 13.104
R255 s:19 MN1@4:s 14
R256 s:17 s:137 1.848
R257 s:17 MN0@4:s 14
R258 s:17 s:136 6.216
R259 s:17 MN0@4:s 14
R260 s:17 s:15 13.104
R261 s:17 MN0@4:s 14
R262 s:15 s:133 1.848
R263 s:15 MN1@3:s 14
R264 s:15 s:132 6.216
R265 s:15 MN1@3:s 14
R266 s:15 s:13 13.104
R267 s:15 MN1@3:s 14
R268 s:13 s:129 1.848
R269 s:13 MN0@3:s 14
R270 s:13 s:128 6.216
R271 s:13 MN0@3:s 14
R272 s:13 s:11 13.104
R273 s:13 MN0@3:s 14
R274 s:11 s:125 1.848
R275 s:11 MN1@2:s 14
R276 s:11 s:124 6.216
R277 s:11 MN1@2:s 14
R278 s:11 s:9 13.104
R279 s:11 MN1@2:s 14
R280 s:9 s:121 1.848
R281 s:9 MN0@2:s 14
R282 s:9 s:120 6.216
R283 s:9 MN0@2:s 14
R284 s:9 s:7 13.104
R285 s:9 MN0@2:s 14
R286 s:7 s:117 1.848
R287 s:7 MN1@1:s 14
R288 s:7 s:116 6.216
R289 s:7 MN1@1:s 14
R290 s:7 s:5 13.104
R291 s:7 MN1@1:s 14
R292 s:5 s:113 1.848
R293 s:5 MN0@1:s 14
R294 s:5 s:112 6.216
R295 s:5 MN0@1:s 14
R296 s:5 s:3 13.104
R297 s:5 MN0@1:s 14
R298 s:3 s:109 1.848
R299 s:3 MN1@0:s 14
R300 s:3 s:108 6.216
R301 s:3 MN1@0:s 14
R302 s:3 s:1 13.104
R303 s:3 MN1@0:s 14
R304 s:1 s:105 1.848
R305 s:1 MN0@0:s 14
R306 s:1 s:104 6.216
R307 s:1 MN0@0:s 14
R308 s:1 s:304 1.008
R309 s:1 MN0@0:s 14
R310 s:100 s:307 1.008
R311 s:100 s:48 6.552
R312 s:100 s:50 6.552
R313 s:50 s:203 1.12
R314 s:50 MN1@12:b 14
R315 s:50 s:202 1.12
R316 s:50 MN1@12:b 14
R317 s:50 s:52 13.104
R318 s:50 MN1@12:b 14
R319 s:52 s:207 1.12
R320 s:52 MN0@13:b 14
R321 s:52 s:206 1.12
R322 s:52 MN0@13:b 14
R323 s:52 s:54 13.104
R324 s:52 MN0@13:b 14
R325 s:54 s:211 1.12
R326 s:54 MN1@13:b 14
R327 s:54 s:210 1.12
R328 s:54 MN1@13:b 14
R329 s:54 s:56 13.104
R330 s:54 MN1@13:b 14
R331 s:56 s:215 1.12
R332 s:56 MN0@14:b 14
R333 s:56 s:214 1.12
R334 s:56 MN0@14:b 14
R335 s:56 s:58 13.104
R336 s:56 MN0@14:b 14
R337 s:58 s:219 1.12
R338 s:58 MN1@14:b 14
R339 s:58 s:218 1.12
R340 s:58 MN1@14:b 14
R341 s:58 s:60 13.104
R342 s:58 MN1@14:b 14
R343 s:60 s:223 1.12
R344 s:60 MN0@15:b 14
R345 s:60 s:222 1.12
R346 s:60 MN0@15:b 14
R347 s:60 s:62 13.104
R348 s:60 MN0@15:b 14
R349 s:62 s:227 1.12
R350 s:62 MN1@15:b 14
R351 s:62 s:226 1.12
R352 s:62 MN1@15:b 14
R353 s:62 s:64 13.104
R354 s:62 MN1@15:b 14
R355 s:64 s:231 1.12
R356 s:64 MN0@16:b 14
R357 s:64 s:230 1.12
R358 s:64 MN0@16:b 14
R359 s:64 s:66 13.104
R360 s:64 MN0@16:b 14
R361 s:66 s:235 1.12
R362 s:66 MN1@16:b 14
R363 s:66 s:234 1.12
R364 s:66 MN1@16:b 14
R365 s:66 s:68 13.104
R366 s:66 MN1@16:b 14
R367 s:68 s:239 1.12
R368 s:68 MN0@17:b 14
R369 s:68 s:238 1.12
R370 s:68 MN0@17:b 14
R371 s:68 s:70 13.104
R372 s:68 MN0@17:b 14
R373 s:70 s:243 1.12
R374 s:70 MN1@17:b 14
R375 s:70 s:242 1.12
R376 s:70 MN1@17:b 14
R377 s:70 s:72 13.104
R378 s:70 MN1@17:b 14
R379 s:72 s:247 1.12
R380 s:72 MN0@18:b 14
R381 s:72 s:246 1.12
R382 s:72 MN0@18:b 14
R383 s:72 s:74 13.104
R384 s:72 MN0@18:b 14
R385 s:74 s:251 1.12
R386 s:74 MN1@18:b 14
R387 s:74 s:250 1.12
R388 s:74 MN1@18:b 14
R389 s:74 s:76 13.104
R390 s:74 MN1@18:b 14
R391 s:76 s:255 1.12
R392 s:76 MN0@19:b 14
R393 s:76 s:254 1.12
R394 s:76 MN0@19:b 14
R395 s:76 s:78 13.104
R396 s:76 MN0@19:b 14
R397 s:78 s:259 1.12
R398 s:78 MN1@19:b 14
R399 s:78 s:258 1.12
R400 s:78 MN1@19:b 14
R401 s:78 s:80 13.104
R402 s:78 MN1@19:b 14
R403 s:80 s:263 1.12
R404 s:80 MN0@20:b 14
R405 s:80 s:262 1.12
R406 s:80 MN0@20:b 14
R407 s:80 s:82 13.104
R408 s:80 MN0@20:b 14
R409 s:82 s:267 1.12
R410 s:82 MN1@20:b 14
R411 s:82 s:266 1.12
R412 s:82 MN1@20:b 14
R413 s:82 s:84 13.104
R414 s:82 MN1@20:b 14
R415 s:84 s:271 1.12
R416 s:84 MN0@21:b 14
R417 s:84 s:270 1.12
R418 s:84 MN0@21:b 14
R419 s:84 s:86 13.104
R420 s:84 MN0@21:b 14
R421 s:86 s:275 1.12
R422 s:86 MN1@21:b 14
R423 s:86 s:274 1.12
R424 s:86 MN1@21:b 14
R425 s:86 s:88 13.104
R426 s:86 MN1@21:b 14
R427 s:88 s:279 1.12
R428 s:88 MN0@22:b 14
R429 s:88 s:278 1.12
R430 s:88 MN0@22:b 14
R431 s:88 s:90 13.104
R432 s:88 MN0@22:b 14
R433 s:90 s:283 1.12
R434 s:90 MN1@22:b 14
R435 s:90 s:282 1.12
R436 s:90 MN1@22:b 14
R437 s:90 s:92 13.104
R438 s:90 MN1@22:b 14
R439 s:92 s:287 1.12
R440 s:92 MN0@23:b 14
R441 s:92 s:286 1.12
R442 s:92 MN0@23:b 14
R443 s:92 s:94 13.104
R444 s:92 MN0@23:b 14
R445 s:94 s:291 1.12
R446 s:94 MN1@23:b 14
R447 s:94 s:290 1.12
R448 s:94 MN1@23:b 14
R449 s:94 s:96 13.104
R450 s:94 MN1@23:b 14
R451 s:96 s:295 1.12
R452 s:96 MN0@24:b 14
R453 s:96 s:294 1.12
R454 s:96 MN0@24:b 14
R455 s:96 s:98 13.104
R456 s:96 MN0@24:b 14
R457 s:98 s:299 1.12
R458 s:98 MN1@24:b 14
R459 s:98 s:298 1.12
R460 s:98 MN1@24:b 14
R461 s:98 s:303 2.1
R462 s:98 MN1@24:b 14
R463 s:48 s:199 1.12
R464 s:48 MN0@12:b 14
R465 s:48 s:198 1.12
R466 s:48 MN0@12:b 14
R467 s:48 s:46 13.104
R468 s:48 MN0@12:b 14
R469 s:46 s:195 1.12
R470 s:46 MN1@11:b 14
R471 s:46 s:194 1.12
R472 s:46 MN1@11:b 14
R473 s:46 s:44 13.104
R474 s:46 MN1@11:b 14
R475 s:44 s:191 1.12
R476 s:44 MN0@11:b 14
R477 s:44 s:190 1.12
R478 s:44 MN0@11:b 14
R479 s:44 s:42 13.104
R480 s:44 MN0@11:b 14
R481 s:42 s:187 1.12
R482 s:42 MN1@10:b 14
R483 s:42 s:186 1.12
R484 s:42 MN1@10:b 14
R485 s:42 s:40 13.104
R486 s:42 MN1@10:b 14
R487 s:40 s:183 1.12
R488 s:40 MN0@10:b 14
R489 s:40 s:182 1.12
R490 s:40 MN0@10:b 14
R491 s:40 s:38 13.104
R492 s:40 MN0@10:b 14
R493 s:38 s:179 1.12
R494 s:38 MN1@9:b 14
R495 s:38 s:178 1.12
R496 s:38 MN1@9:b 14
R497 s:38 s:36 13.104
R498 s:38 MN1@9:b 14
R499 s:36 s:175 1.12
R500 s:36 MN0@9:b 14
R501 s:36 s:174 1.12
R502 s:36 MN0@9:b 14
R503 s:36 s:34 13.104
R504 s:36 MN0@9:b 14
R505 s:34 s:171 1.12
R506 s:34 MN1@8:b 14
R507 s:34 s:170 1.12
R508 s:34 MN1@8:b 14
R509 s:34 s:32 13.104
R510 s:34 MN1@8:b 14
R511 s:32 s:167 1.12
R512 s:32 MN0@8:b 14
R513 s:32 s:166 1.12
R514 s:32 MN0@8:b 14
R515 s:32 s:30 13.104
R516 s:32 MN0@8:b 14
R517 s:30 s:163 1.12
R518 s:30 MN1@7:b 14
R519 s:30 s:162 1.12
R520 s:30 MN1@7:b 14
R521 s:30 s:28 13.104
R522 s:30 MN1@7:b 14
R523 s:28 s:159 1.12
R524 s:28 MN0@7:b 14
R525 s:28 s:158 1.12
R526 s:28 MN0@7:b 14
R527 s:28 s:26 13.104
R528 s:28 MN0@7:b 14
R529 s:26 s:155 1.12
R530 s:26 MN1@6:b 14
R531 s:26 s:154 1.12
R532 s:26 MN1@6:b 14
R533 s:26 s:24 13.104
R534 s:26 MN1@6:b 14
R535 s:24 s:151 1.12
R536 s:24 MN0@6:b 14
R537 s:24 s:150 1.12
R538 s:24 MN0@6:b 14
R539 s:24 s:22 13.104
R540 s:24 MN0@6:b 14
R541 s:22 s:147 1.12
R542 s:22 MN1@5:b 14
R543 s:22 s:146 1.12
R544 s:22 MN1@5:b 14
R545 s:22 s:20 13.104
R546 s:22 MN1@5:b 14
R547 s:20 s:143 1.12
R548 s:20 MN0@5:b 14
R549 s:20 s:142 1.12
R550 s:20 MN0@5:b 14
R551 s:20 s:18 13.104
R552 s:20 MN0@5:b 14
R553 s:18 s:139 1.12
R554 s:18 MN1@4:b 14
R555 s:18 s:138 1.12
R556 s:18 MN1@4:b 14
R557 s:18 s:16 13.104
R558 s:18 MN1@4:b 14
R559 s:16 s:135 1.12
R560 s:16 MN0@4:b 14
R561 s:16 s:134 1.12
R562 s:16 MN0@4:b 14
R563 s:16 s:14 13.104
R564 s:16 MN0@4:b 14
R565 s:14 s:131 1.12
R566 s:14 MN1@3:b 14
R567 s:14 s:130 1.12
R568 s:14 MN1@3:b 14
R569 s:14 s:12 13.104
R570 s:14 MN1@3:b 14
R571 s:12 s:127 1.12
R572 s:12 MN0@3:b 14
R573 s:12 s:126 1.12
R574 s:12 MN0@3:b 14
R575 s:12 s:10 13.104
R576 s:12 MN0@3:b 14
R577 s:10 s:123 1.12
R578 s:10 MN1@2:b 14
R579 s:10 s:122 1.12
R580 s:10 MN1@2:b 14
R581 s:10 s:8 13.104
R582 s:10 MN1@2:b 14
R583 s:8 s:119 1.12
R584 s:8 MN0@2:b 14
R585 s:8 s:118 1.12
R586 s:8 MN0@2:b 14
R587 s:8 s:6 13.104
R588 s:8 MN0@2:b 14
R589 s:6 s:115 1.12
R590 s:6 MN1@1:b 14
R591 s:6 s:114 1.12
R592 s:6 MN1@1:b 14
R593 s:6 s:4 13.104
R594 s:6 MN1@1:b 14
R595 s:4 s:111 1.12
R596 s:4 MN0@1:b 14
R597 s:4 s:110 1.12
R598 s:4 MN0@1:b 14
R599 s:4 s:2 13.104
R600 s:4 MN0@1:b 14
R601 s:2 s:107 1.12
R602 s:2 MN1@0:b 14
R603 s:2 s:106 1.12
R604 s:2 MN1@0:b 14
R605 s:2 s:0 13.104
R606 s:2 MN1@0:b 14
R607 s:0 s:103 1.12
R608 s:0 MN0@0:b 14
R609 s:0 s:102 1.12
R610 s:0 MN0@0:b 14
R611 s:0 s:302 2.1
R612 s:0 MN0@0:b 14
R613 MN1@24:s MN2@0:s 0.01
C1 s:51 0 1.386e-14
C2 s:51 0 4.662e-14
C3 s:51 0 4.0950000000000005e-14
C4 s:51 0 9.828e-14
C5 s:53 0 1.386e-14
C6 s:53 0 4.662e-14
C7 s:53 0 9.828e-14
C8 s:55 0 1.386e-14
C9 s:55 0 4.662e-14
C10 s:55 0 9.828e-14
C11 s:57 0 1.386e-14
C12 s:57 0 4.662e-14
C13 s:57 0 9.828e-14
C14 s:59 0 1.386e-14
C15 s:59 0 4.662e-14
C16 s:59 0 9.828e-14
C17 s:61 0 1.386e-14
C18 s:61 0 4.662e-14
C19 s:61 0 9.828e-14
C20 s:63 0 1.386e-14
C21 s:63 0 4.662e-14
C22 s:63 0 9.828e-14
C23 s:65 0 1.386e-14
C24 s:65 0 4.662e-14
C25 s:65 0 9.828e-14
C26 s:67 0 1.386e-14
C27 s:67 0 4.662e-14
C28 s:67 0 9.828e-14
C29 s:69 0 1.386e-14
C30 s:69 0 4.662e-14
C31 s:69 0 9.828e-14
C32 s:71 0 1.386e-14
C33 s:71 0 4.662e-14
C34 s:71 0 9.828e-14
C35 s:73 0 1.386e-14
C36 s:73 0 4.662e-14
C37 s:73 0 9.828e-14
C38 s:75 0 1.386e-14
C39 s:75 0 4.662e-14
C40 s:75 0 9.828e-14
C41 s:77 0 1.386e-14
C42 s:77 0 4.662e-14
C43 s:77 0 9.828e-14
C44 s:79 0 1.386e-14
C45 s:79 0 4.662e-14
C46 s:79 0 9.828e-14
C47 s:81 0 1.386e-14
C48 s:81 0 4.662e-14
C49 s:81 0 9.828e-14
C50 s:83 0 1.386e-14
C51 s:83 0 4.662e-14
C52 s:83 0 9.828e-14
C53 s:85 0 1.386e-14
C54 s:85 0 4.662e-14
C55 s:85 0 9.828e-14
C56 s:87 0 1.386e-14
C57 s:87 0 4.662e-14
C58 s:87 0 9.828e-14
C59 s:89 0 1.386e-14
C60 s:89 0 4.662e-14
C61 s:89 0 9.828e-14
C62 s:91 0 1.386e-14
C63 s:91 0 4.662e-14
C64 s:91 0 9.828e-14
C65 s:93 0 1.386e-14
C66 s:93 0 4.662e-14
C67 s:93 0 9.828e-14
C68 s:95 0 1.386e-14
C69 s:95 0 4.662e-14
C70 s:95 0 9.828e-14
C71 s:97 0 1.386e-14
C72 s:97 0 4.662e-14
C73 s:97 0 9.828e-14
C74 s:99 0 1.386e-14
C75 s:99 0 4.662e-14
C76 s:99 0 2.394e-14
C77 s:101 0 8.400000000000001e-14
C78 s:101 0 7.56e-15
C79 s:101 0 5.733000000000001e-14
C80 s:49 0 1.386e-14
C81 s:49 0 4.662e-14
C82 s:49 0 9.828e-14
C83 s:47 0 1.386e-14
C84 s:47 0 4.662e-14
C85 s:47 0 9.828e-14
C86 s:45 0 1.386e-14
C87 s:45 0 4.662e-14
C88 s:45 0 9.828e-14
C89 s:43 0 1.386e-14
C90 s:43 0 4.662e-14
C91 s:43 0 9.828e-14
C92 s:41 0 1.386e-14
C93 s:41 0 4.662e-14
C94 s:41 0 9.828e-14
C95 s:39 0 1.386e-14
C96 s:39 0 4.662e-14
C97 s:39 0 9.828e-14
C98 s:37 0 1.386e-14
C99 s:37 0 4.662e-14
C100 s:37 0 9.828e-14
C101 s:35 0 1.386e-14
C102 s:35 0 4.662e-14
C103 s:35 0 9.828e-14
C104 s:33 0 1.386e-14
C105 s:33 0 4.662e-14
C106 s:33 0 9.828e-14
C107 s:31 0 1.386e-14
C108 s:31 0 4.662e-14
C109 s:31 0 9.828e-14
C110 s:29 0 1.386e-14
C111 s:29 0 4.662e-14
C112 s:29 0 9.828e-14
C113 s:27 0 1.386e-14
C114 s:27 0 4.662e-14
C115 s:27 0 9.828e-14
C116 s:25 0 1.386e-14
C117 s:25 0 4.662e-14
C118 s:25 0 9.828e-14
C119 s:23 0 1.386e-14
C120 s:23 0 4.662e-14
C121 s:23 0 9.828e-14
C122 s:21 0 1.386e-14
C123 s:21 0 4.662e-14
C124 s:21 0 9.828e-14
C125 s:19 0 1.386e-14
C126 s:19 0 4.662e-14
C127 s:19 0 9.828e-14
C128 s:17 0 1.386e-14
C129 s:17 0 4.662e-14
C130 s:17 0 9.828e-14
C131 s:15 0 1.386e-14
C132 s:15 0 4.662e-14
C133 s:15 0 9.828e-14
C134 s:13 0 1.386e-14
C135 s:13 0 4.662e-14
C136 s:13 0 9.828e-14
C137 s:11 0 1.386e-14
C138 s:11 0 4.662e-14
C139 s:11 0 9.828e-14
C140 s:9 0 1.386e-14
C141 s:9 0 4.662e-14
C142 s:9 0 9.828e-14
C143 s:7 0 1.386e-14
C144 s:7 0 4.662e-14
C145 s:7 0 9.828e-14
C146 s:5 0 1.386e-14
C147 s:5 0 4.662e-14
C148 s:5 0 9.828e-14
C149 s:3 0 1.386e-14
C150 s:3 0 4.662e-14
C151 s:3 0 9.828e-14
C152 s:1 0 1.386e-14
C153 s:1 0 4.662e-14
C154 s:1 0 7.56e-15
C155 s:100 0 7.56e-15
C156 s:100 0 4.914e-14
C157 s:100 0 4.914e-14
C158 s:50 0 8.400000000000001e-15
C159 s:50 0 8.400000000000001e-15
C160 s:50 0 9.828e-14
C161 s:52 0 8.400000000000001e-15
C162 s:52 0 8.400000000000001e-15
C163 s:52 0 9.828e-14
C164 s:54 0 8.400000000000001e-15
C165 s:54 0 8.400000000000001e-15
C166 s:54 0 9.828e-14
C167 s:56 0 8.400000000000001e-15
C168 s:56 0 8.400000000000001e-15
C169 s:56 0 9.828e-14
C170 s:58 0 8.400000000000001e-15
C171 s:58 0 8.400000000000001e-15
C172 s:58 0 9.828e-14
C173 s:60 0 8.400000000000001e-15
C174 s:60 0 8.400000000000001e-15
C175 s:60 0 9.828e-14
C176 s:62 0 8.400000000000001e-15
C177 s:62 0 8.400000000000001e-15
C178 s:62 0 9.828e-14
C179 s:64 0 8.400000000000001e-15
C180 s:64 0 8.400000000000001e-15
C181 s:64 0 9.828e-14
C182 s:66 0 8.400000000000001e-15
C183 s:66 0 8.400000000000001e-15
C184 s:66 0 9.828e-14
C185 s:68 0 8.400000000000001e-15
C186 s:68 0 8.400000000000001e-15
C187 s:68 0 9.828e-14
C188 s:70 0 8.400000000000001e-15
C189 s:70 0 8.400000000000001e-15
C190 s:70 0 9.828e-14
C191 s:72 0 8.400000000000001e-15
C192 s:72 0 8.400000000000001e-15
C193 s:72 0 9.828e-14
C194 s:74 0 8.400000000000001e-15
C195 s:74 0 8.400000000000001e-15
C196 s:74 0 9.828e-14
C197 s:76 0 8.400000000000001e-15
C198 s:76 0 8.400000000000001e-15
C199 s:76 0 9.828e-14
C200 s:78 0 8.400000000000001e-15
C201 s:78 0 8.400000000000001e-15
C202 s:78 0 9.828e-14
C203 s:80 0 8.400000000000001e-15
C204 s:80 0 8.400000000000001e-15
C205 s:80 0 9.828e-14
C206 s:82 0 8.400000000000001e-15
C207 s:82 0 8.400000000000001e-15
C208 s:82 0 9.828e-14
C209 s:84 0 8.400000000000001e-15
C210 s:84 0 8.400000000000001e-15
C211 s:84 0 9.828e-14
C212 s:86 0 8.400000000000001e-15
C213 s:86 0 8.400000000000001e-15
C214 s:86 0 9.828e-14
C215 s:88 0 8.400000000000001e-15
C216 s:88 0 8.400000000000001e-15
C217 s:88 0 9.828e-14
C218 s:90 0 8.400000000000001e-15
C219 s:90 0 8.400000000000001e-15
C220 s:90 0 9.828e-14
C221 s:92 0 8.400000000000001e-15
C222 s:92 0 8.400000000000001e-15
C223 s:92 0 9.828e-14
C224 s:94 0 8.400000000000001e-15
C225 s:94 0 8.400000000000001e-15
C226 s:94 0 9.828e-14
C227 s:96 0 8.400000000000001e-15
C228 s:96 0 8.400000000000001e-15
C229 s:96 0 9.828e-14
C230 s:98 0 8.400000000000001e-15
C231 s:98 0 8.400000000000001e-15
C232 s:98 0 1.5750000000000002e-14
C233 s:48 0 8.400000000000001e-15
C234 s:48 0 8.400000000000001e-15
C235 s:48 0 9.828e-14
C236 s:46 0 8.400000000000001e-15
C237 s:46 0 8.400000000000001e-15
C238 s:46 0 9.828e-14
C239 s:44 0 8.400000000000001e-15
C240 s:44 0 8.400000000000001e-15
C241 s:44 0 9.828e-14
C242 s:42 0 8.400000000000001e-15
C243 s:42 0 8.400000000000001e-15
C244 s:42 0 9.828e-14
C245 s:40 0 8.400000000000001e-15
C246 s:40 0 8.400000000000001e-15
C247 s:40 0 9.828e-14
C248 s:38 0 8.400000000000001e-15
C249 s:38 0 8.400000000000001e-15
C250 s:38 0 9.828e-14
C251 s:36 0 8.400000000000001e-15
C252 s:36 0 8.400000000000001e-15
C253 s:36 0 9.828e-14
C254 s:34 0 8.400000000000001e-15
C255 s:34 0 8.400000000000001e-15
C256 s:34 0 9.828e-14
C257 s:32 0 8.400000000000001e-15
C258 s:32 0 8.400000000000001e-15
C259 s:32 0 9.828e-14
C260 s:30 0 8.400000000000001e-15
C261 s:30 0 8.400000000000001e-15
C262 s:30 0 9.828e-14
C263 s:28 0 8.400000000000001e-15
C264 s:28 0 8.400000000000001e-15
C265 s:28 0 9.828e-14
C266 s:26 0 8.400000000000001e-15
C267 s:26 0 8.400000000000001e-15
C268 s:26 0 9.828e-14
C269 s:24 0 8.400000000000001e-15
C270 s:24 0 8.400000000000001e-15
C271 s:24 0 9.828e-14
C272 s:22 0 8.400000000000001e-15
C273 s:22 0 8.400000000000001e-15
C274 s:22 0 9.828e-14
C275 s:20 0 8.400000000000001e-15
C276 s:20 0 8.400000000000001e-15
C277 s:20 0 9.828e-14
C278 s:18 0 8.400000000000001e-15
C279 s:18 0 8.400000000000001e-15
C280 s:18 0 9.828e-14
C281 s:16 0 8.400000000000001e-15
C282 s:16 0 8.400000000000001e-15
C283 s:16 0 9.828e-14
C284 s:14 0 8.400000000000001e-15
C285 s:14 0 8.400000000000001e-15
C286 s:14 0 9.828e-14
C287 s:12 0 8.400000000000001e-15
C288 s:12 0 8.400000000000001e-15
C289 s:12 0 9.828e-14
C290 s:10 0 8.400000000000001e-15
C291 s:10 0 8.400000000000001e-15
C292 s:10 0 9.828e-14
C293 s:8 0 8.400000000000001e-15
C294 s:8 0 8.400000000000001e-15
C295 s:8 0 9.828e-14
C296 s:6 0 8.400000000000001e-15
C297 s:6 0 8.400000000000001e-15
C298 s:6 0 9.828e-14
C299 s:4 0 8.400000000000001e-15
C300 s:4 0 8.400000000000001e-15
C301 s:4 0 9.828e-14
C302 s:2 0 8.400000000000001e-15
C303 s:2 0 8.400000000000001e-15
C304 s:2 0 9.828e-14
C305 s:0 0 8.400000000000001e-15
C306 s:0 0 8.400000000000001e-15
C307 s:0 0 1.5750000000000002e-14


* Net:d1 ----------------


R614 d1 d1:22 5.46
R615 d1 d1:19 2.184
R616 d1:19 d1:67 1.008
R617 d1:19 d1:66 1.008
R618 d1:19 d1:23 18.564
R619 d1:23 d1:93 2.016
R620 d1:23 d1:74 4.032
R621 d1:23 d1:24 26.208
R622 d1:24 d1:94 2.016
R623 d1:24 d1:76 4.032
R624 d1:24 d1:25 26.208
R625 d1:25 d1:95 2.016
R626 d1:25 d1:78 4.032
R627 d1:25 d1:1 26.208
R628 d1:1 d1:96 2.016
R629 d1:1 d1:28 4.032
R630 d1:1 d1:3 26.208
R631 d1:3 d1:97 2.016
R632 d1:3 d1:32 4.032
R633 d1:3 d1:5 26.208
R634 d1:5 d1:98 2.016
R635 d1:5 d1:36 4.032
R636 d1:5 d1:7 26.208
R637 d1:7 d1:99 2.016
R638 d1:7 d1:40 4.032
R639 d1:7 d1:9 26.208
R640 d1:9 d1:100 2.016
R641 d1:9 d1:44 4.032
R642 d1:9 d1:11 26.208
R643 d1:11 d1:101 2.016
R644 d1:11 d1:48 4.032
R645 d1:11 d1:13 26.208
R646 d1:13 d1:102 2.016
R647 d1:13 d1:52 4.032
R648 d1:13 d1:15 26.208
R649 d1:15 d1:103 2.016
R650 d1:15 d1:56 4.032
R651 d1:15 d1:17 26.208
R652 d1:17 d1:104 2.016
R653 d1:17 d1:60 4.032
R654 d1:17 d1:65 14.112
R655 d1:104 d1:61 2.016
R656 d1:104 MN0@24:d 14
R657 d1:103 d1:57 2.016
R658 d1:103 MN0@23:d 14
R659 d1:102 d1:53 2.016
R660 d1:102 MN0@22:d 14
R661 d1:101 d1:49 2.016
R662 d1:101 MN0@21:d 14
R663 d1:100 d1:45 2.016
R664 d1:100 MN0@20:d 14
R665 d1:99 d1:41 2.016
R666 d1:99 MN0@19:d 14
R667 d1:98 d1:37 2.016
R668 d1:98 MN0@18:d 14
R669 d1:97 d1:33 2.016
R670 d1:97 MN0@17:d 14
R671 d1:96 d1:29 2.016
R672 d1:96 MN0@16:d 14
R673 d1:95 d1:79 2.016
R674 d1:95 MN0@15:d 14
R675 d1:94 d1:77 2.016
R676 d1:94 MN0@14:d 14
R677 d1:93 d1:75 2.016
R678 d1:93 MN0@13:d 14
R679 d1:22 d1:92 2.016
R680 d1:22 d1:72 4.032
R681 d1:22 d1:21 26.208
R682 d1:21 d1:91 2.016
R683 d1:21 d1:70 4.032
R684 d1:21 d1:20 26.208
R685 d1:20 d1:90 2.016
R686 d1:20 d1:68 4.032
R687 d1:20 d1:18 26.208
R688 d1:18 d1:89 2.016
R689 d1:18 d1:62 4.032
R690 d1:18 d1:16 26.208
R691 d1:16 d1:88 2.016
R692 d1:16 d1:58 4.032
R693 d1:16 d1:14 26.208
R694 d1:14 d1:87 2.016
R695 d1:14 d1:54 4.032
R696 d1:14 d1:12 26.208
R697 d1:12 d1:86 2.016
R698 d1:12 d1:50 4.032
R699 d1:12 d1:10 26.208
R700 d1:10 d1:85 2.016
R701 d1:10 d1:46 4.032
R702 d1:10 d1:8 26.208
R703 d1:8 d1:84 2.016
R704 d1:8 d1:42 4.032
R705 d1:8 d1:6 26.208
R706 d1:6 d1:83 2.016
R707 d1:6 d1:38 4.032
R708 d1:6 d1:4 26.208
R709 d1:4 d1:82 2.016
R710 d1:4 d1:34 4.032
R711 d1:4 d1:2 26.208
R712 d1:2 d1:81 2.016
R713 d1:2 d1:30 4.032
R714 d1:2 d1:0 26.208
R715 d1:0 d1:80 2.016
R716 d1:0 d1:26 4.032
R717 d1:0 d1:64 3.192
R718 d1:80 d1:27 2.016
R719 d1:80 MN0@0:d 14
R720 d1:81 d1:31 2.016
R721 d1:81 MN0@1:d 14
R722 d1:82 d1:35 2.016
R723 d1:82 MN0@2:d 14
R724 d1:83 d1:39 2.016
R725 d1:83 MN0@3:d 14
R726 d1:84 d1:43 2.016
R727 d1:84 MN0@4:d 14
R728 d1:85 d1:47 2.016
R729 d1:85 MN0@5:d 14
R730 d1:86 d1:51 2.016
R731 d1:86 MN0@6:d 14
R732 d1:87 d1:55 2.016
R733 d1:87 MN0@7:d 14
R734 d1:88 d1:59 2.016
R735 d1:88 MN0@8:d 14
R736 d1:89 d1:63 2.016
R737 d1:89 MN0@9:d 14
R738 d1:90 d1:69 2.016
R739 d1:90 MN0@10:d 14
R740 d1:91 d1:71 2.016
R741 d1:91 MN0@11:d 14
R742 d1:92 d1:73 2.016
R743 d1:92 MN0@12:d 14
C308 d1:19 0 7.56e-15
C309 d1:19 0 7.56e-15
C310 d1:19 0 1.3923e-13
C311 d1:23 0 1.512e-14
C312 d1:23 0 3.024e-14
C313 d1:23 0 1.965600000000004e-13
C314 d1:24 0 1.512e-14
C315 d1:24 0 3.024e-14
C316 d1:24 0 1.9656e-13
C317 d1:25 0 1.512e-14
C318 d1:25 0 3.024e-14
C319 d1:25 0 1.9656e-13
C320 d1:1 0 1.512e-14
C321 d1:1 0 3.024e-14
C322 d1:1 0 1.9656e-13
C323 d1:3 0 1.512e-14
C324 d1:3 0 3.024e-14
C325 d1:3 0 1.9656e-13
C326 d1:5 0 1.512e-14
C327 d1:5 0 3.024e-14
C328 d1:5 0 1.9656e-13
C329 d1:7 0 1.512e-14
C330 d1:7 0 3.024e-14
C331 d1:7 0 1.9656e-13
C332 d1:9 0 1.512e-14
C333 d1:9 0 3.024e-14
C334 d1:9 0 1.9656e-13
C335 d1:11 0 1.512e-14
C336 d1:11 0 3.024e-14
C337 d1:11 0 1.9656e-13
C338 d1:13 0 1.512e-14
C339 d1:13 0 3.024e-14
C340 d1:13 0 1.9656e-13
C341 d1:15 0 1.512e-14
C342 d1:15 0 3.024e-14
C343 d1:15 0 1.9656e-13
C344 d1:17 0 1.512e-14
C345 d1:17 0 3.024e-14
C346 d1:17 0 1.0584000000000001e-13
C347 d1:104 0 1.512e-14
C348 d1:103 0 1.512e-14
C349 d1:102 0 1.512e-14
C350 d1:101 0 1.512e-14
C351 d1:100 0 1.512e-14
C352 d1:99 0 1.512e-14
C353 d1:98 0 1.512e-14
C354 d1:97 0 1.512e-14
C355 d1:96 0 1.512e-14
C356 d1:95 0 1.512e-14
C357 d1:94 0 1.512e-14
C358 d1:93 0 1.512e-14
C359 d1:22 0 1.512e-14
C360 d1:22 0 3.024e-14
C361 d1:22 0 1.9656e-13
C362 d1:21 0 1.512e-14
C363 d1:21 0 3.024e-14
C364 d1:21 0 1.9656e-13
C365 d1:20 0 1.512e-14
C366 d1:20 0 3.024e-14
C367 d1:20 0 1.9656e-13
C368 d1:18 0 1.512e-14
C369 d1:18 0 3.024e-14
C370 d1:18 0 1.9656e-13
C371 d1:16 0 1.512e-14
C372 d1:16 0 3.024e-14
C373 d1:16 0 1.9656e-13
C374 d1:14 0 1.512e-14
C375 d1:14 0 3.024e-14
C376 d1:14 0 1.9656e-13
C377 d1:12 0 1.512e-14
C378 d1:12 0 3.024e-14
C379 d1:12 0 1.9656e-13
C380 d1:10 0 1.512e-14
C381 d1:10 0 3.024e-14
C382 d1:10 0 1.9656e-13
C383 d1:8 0 1.512e-14
C384 d1:8 0 3.024e-14
C385 d1:8 0 1.9656e-13
C386 d1:6 0 1.512e-14
C387 d1:6 0 3.024e-14
C388 d1:6 0 1.9656e-13
C389 d1:4 0 1.512e-14
C390 d1:4 0 3.024e-14
C391 d1:4 0 1.9656e-13
C392 d1:2 0 1.512e-14
C393 d1:2 0 3.024e-14
C394 d1:2 0 1.9656e-13
C395 d1:0 0 1.512e-14
C396 d1:0 0 3.024e-14
C397 d1:0 0 2.394e-14
C398 d1:80 0 1.512e-14
C399 d1:81 0 1.512e-14
C400 d1:82 0 1.512e-14
C401 d1:83 0 1.512e-14
C402 d1:84 0 1.512e-14
C403 d1:85 0 1.512e-14
C404 d1:86 0 1.512e-14
C405 d1:87 0 1.512e-14
C406 d1:88 0 1.512e-14
C407 d1:89 0 1.512e-14
C408 d1:90 0 1.512e-14
C409 d1:91 0 1.512e-14
C410 d1:92 0 1.512e-14


* Net:d0 ----------------


R744 d0 d0:76 2.184
R745 d0 d0:37 7.644
R746 d0:37 d0:245 4.2
R747 d0:37 d0:151 1.848
R748 d0:37 d0:40 26.208
R749 d0:40 d0:246 4.2
R750 d0:40 d0:157 1.848
R751 d0:40 d0:43 26.208
R752 d0:43 d0:247 4.2
R753 d0:43 d0:163 1.848
R754 d0:43 d0:46 26.208
R755 d0:46 d0:248 4.2
R756 d0:46 d0:169 1.848
R757 d0:46 d0:49 26.208
R758 d0:49 d0:249 4.2
R759 d0:49 d0:175 1.848
R760 d0:49 d0:52 26.208
R761 d0:52 d0:250 4.2
R762 d0:52 d0:181 1.848
R763 d0:52 d0:55 26.208
R764 d0:55 d0:251 4.2
R765 d0:55 d0:187 1.848
R766 d0:55 d0:58 26.208
R767 d0:58 d0:252 4.2
R768 d0:58 d0:193 1.848
R769 d0:58 d0:61 26.208
R770 d0:61 d0:253 4.2
R771 d0:61 d0:199 1.848
R772 d0:61 d0:64 26.208
R773 d0:64 d0:254 4.2
R774 d0:64 d0:205 1.848
R775 d0:64 d0:67 26.208
R776 d0:67 d0:255 4.2
R777 d0:67 d0:211 1.848
R778 d0:67 d0:70 26.208
R779 d0:70 d0:256 4.2
R780 d0:70 d0:217 1.848
R781 d0:70 d0:73 26.208
R782 d0:73 d0:257 4.2
R783 d0:73 d0:223 1.848
R784 d0:73 d0:230 1.008
R785 d0:257 d0:224 2.016
R786 d0:257 MN1@24:d 14
R787 d0:256 d0:218 2.016
R788 d0:256 MN1@23:d 14
R789 d0:255 d0:212 2.016
R790 d0:255 MN1@22:d 14
R791 d0:254 d0:206 2.016
R792 d0:254 MN1@21:d 14
R793 d0:253 d0:200 2.016
R794 d0:253 MN1@20:d 14
R795 d0:252 d0:194 2.016
R796 d0:252 MN1@19:d 14
R797 d0:251 d0:188 2.016
R798 d0:251 MN1@18:d 14
R799 d0:250 d0:182 2.016
R800 d0:250 MN1@17:d 14
R801 d0:249 d0:176 2.016
R802 d0:249 MN1@16:d 14
R803 d0:248 d0:170 2.016
R804 d0:248 MN1@15:d 14
R805 d0:247 d0:164 2.016
R806 d0:247 MN1@14:d 14
R807 d0:246 d0:158 2.016
R808 d0:246 MN1@13:d 14
R809 d0:245 d0:152 2.016
R810 d0:245 MN1@12:d 14
R811 d0:76 d0:75 8.904
R812 d0:76 d0:231 1.008
R813 d0:76 d0:34 16.38
R814 d0:34 d0:244 4.2
R815 d0:34 d0:145 1.848
R816 d0:34 d0:31 26.208
R817 d0:31 d0:243 4.2
R818 d0:31 d0:139 1.848
R819 d0:31 d0:28 26.208
R820 d0:28 d0:242 4.2
R821 d0:28 d0:133 1.848
R822 d0:28 d0:25 26.208
R823 d0:25 d0:241 4.2
R824 d0:25 d0:127 1.848
R825 d0:25 d0:22 26.208
R826 d0:22 d0:240 4.2
R827 d0:22 d0:121 1.848
R828 d0:22 d0:19 26.208
R829 d0:19 d0:239 4.2
R830 d0:19 d0:115 1.848
R831 d0:19 d0:16 26.208
R832 d0:16 d0:238 4.2
R833 d0:16 d0:109 1.848
R834 d0:16 d0:13 26.208
R835 d0:13 d0:237 4.2
R836 d0:13 d0:103 1.848
R837 d0:13 d0:10 26.208
R838 d0:10 d0:236 4.2
R839 d0:10 d0:97 1.848
R840 d0:10 d0:7 26.208
R841 d0:7 d0:235 4.2
R842 d0:7 d0:91 1.848
R843 d0:7 d0:4 26.208
R844 d0:4 d0:234 4.2
R845 d0:4 d0:85 1.848
R846 d0:4 d0:1 26.208
R847 d0:1 d0:233 4.2
R848 d0:1 d0:79 1.848
R849 d0:1 d0:229 16.296
R850 d0:233 d0:80 2.016
R851 d0:233 MN1@0:d 14
R852 d0:234 d0:86 2.016
R853 d0:234 MN1@1:d 14
R854 d0:235 d0:92 2.016
R855 d0:235 MN1@2:d 14
R856 d0:236 d0:98 2.016
R857 d0:236 MN1@3:d 14
R858 d0:237 d0:104 2.016
R859 d0:237 MN1@4:d 14
R860 d0:238 d0:110 2.016
R861 d0:238 MN1@5:d 14
R862 d0:239 d0:116 2.016
R863 d0:239 MN1@6:d 14
R864 d0:240 d0:122 2.016
R865 d0:240 MN1@7:d 14
R866 d0:241 d0:128 2.016
R867 d0:241 MN1@8:d 14
R868 d0:242 d0:134 2.016
R869 d0:242 MN1@9:d 14
R870 d0:243 d0:140 2.016
R871 d0:243 MN1@10:d 14
R872 d0:244 d0:146 2.016