*|DSPF	1.5
*|DESIGN	nmos_cm_5x15x1_111_1
*|DATE	"Wed Jun 19 2025"
*|VENDOR	"Mentor Graphics Corporation"
*|PROGRAM	"Calibre xACT"
*|VERSION	"v2020.4_34.17"
*|DIVIDER	|
*|DELIMITER	:
*|BUSBIT	[]
* Corner Name: 12lp_11M_3Mx_4Cx_2Kx_2Gx_LB_nominal_detailed_25
* Nominal Temperature: 25C
* Circuit Temperature: 25C
*

* Integrated TICER reduction is not enabled.
* SHORT DELAY THRESHOLD: 2e-14
* Fill Mode: NG
* PEX REDUCE CC ABSOLUTE : disabled
* PEX REDUCE CC RATIO : disabled
* Delta transform mode : 344834

.subckt nmos_cm_5x15x1_111_1 d0 d1 s

* Net:s ----------------


R1 s s:14 7.644
R2 s s:22 5.46
R3 s:22 s:79 2.268
R4 s:22 MN1@0:s 14
R5 s:22 s:110 1.092
R6 s:22 MN1@0:s 14
R7 s:22 s:23 4.368
R8 s:22 MN1@0:s 14
R9 s:23 s:81 2.268
R10 s:23 MN1@1:s 14
R11 s:23 s:111 1.092
R12 s:23 MN1@1:s 14
R13 s:23 s:24 4.368
R14 s:23 MN1@1:s 14
R15 s:24 s:83 2.268
R16 s:24 MN1@3:s 14
R17 s:24 s:112 1.092
R18 s:24 MN1@3:s 14
R19 s:24 s:25 4.368
R20 s:24 MN1@3:s 14
R21 s:25 s:85 2.268
R22 s:25 MN1@5:s 14
R23 s:25 s:113 1.092
R24 s:25 MN1@5:s 14
R25 s:25 s:26 4.368
R26 s:25 MN1@5:s 14
R27 s:26 s:87 2.268
R28 s:26 MN1@7:s 14
R29 s:26 s:114 1.092
R30 s:26 MN1@7:s 14
R31 s:26 s:33 1.54
R32 s:26 MN1@7:s 14
R33 s:33 s:31 11.62
R34 s:33 s:100 1.008
R35 s:33 s:27 2.828
R36 s:27 s:89 2.268
R37 s:27 MN1@9:s 14
R38 s:27 s:115 1.092
R39 s:27 MN1@9:s 14
R40 s:27 s:28 4.368
R41 s:27 MN1@9:s 14
R42 s:28 s:91 2.268
R43 s:28 MN1@11:s 14
R44 s:28 s:116 1.092
R45 s:28 MN1@11:s 14
R46 s:28 s:29 4.368
R47 s:28 MN1@11:s 14
R48 s:29 s:93 2.268
R49 s:29 MN1@13:s 14
R50 s:29 s:117 1.092
R51 s:29 MN1@13:s 14
R52 s:29 s:97 3.276
R53 s:29 MN1@13:s 14
R54 s:117 s:92 3.36
R55 s:117 MN1@13:s 14
R56 s:116 s:90 3.36
R57 s:116 MN1@11:s 14
R58 s:115 s:88 3.36
R59 s:115 MN1@9:s 14
R60 s:31 s:101 1.288
R61 s:31 s:18 2.632
R62 s:31 s:19 0.896
R63 s:19 s:73 1.12
R64 s:19 MN1@0:b 14
R65 s:19 s:72 1.12
R66 s:19 MN1@0:b 14
R67 s:19 s:20 3.528
R68 s:19 MN1@0:b 14
R69 s:20 s:75 1.12
R70 s:20 MN1@0:b 14
R71 s:20 s:74 1.12
R72 s:20 MN1@0:b 14
R73 s:20 s:21 3.528
R74 s:20 MN1@0:b 14
R75 s:21 s:77 1.12
R76 s:21 MN1@0:b 14
R77 s:21 s:76 1.12
R78 s:21 MN1@0:b 14
R79 s:21 s:95 6.244
R80 s:21 MN1@0:b 14
R81 s:18 s:71 1.12
R82 s:18 MN1@0:b 14
R83 s:18 s:70 1.12
R84 s:18 MN1@0:b 14
R85 s:18 s:17 3.528
R86 s:18 MN1@0:b 14
R87 s:17 s:69 1.12
R88 s:17 MN1@0:b 14
R89 s:17 s:68 1.12
R90 s:17 MN1@0:b 14
R91 s:17 s:16 3.528
R92 s:17 MN1@0:b 14
R93 s:16 s:67 1.12
R94 s:16 MN1@0:b 14
R95 s:16 s:66 1.12
R96 s:16 MN1@0:b 14
R97 s:16 s:15 3.528
R98 s:16 MN1@0:b 14
R99 s:15 s:65 1.12
R100 s:15 MN1@0:b 14
R101 s:15 s:64 1.12
R102 s:15 MN1@0:b 14
R103 s:15 s:6 22.512
R104 s:15 MN1@0:b 14
R105 s:6 s:47 1.12
R106 s:6 MN0@0:b 14
R107 s:6 s:46 1.12
R108 s:6 MN0@0:b 14
R109 s:6 s:5 3.528
R110 s:6 MN0@0:b 14
R111 s:5 s:45 1.12
R112 s:5 MN0@0:b 14
R113 s:5 s:44 1.12
R114 s:5 MN0@0:b 14
R115 s:5 s:4 3.528
R116 s:5 MN0@0:b 14
R117 s:4 s:43 1.12
R118 s:4 MN0@0:b 14
R119 s:4 s:42 1.12
R120 s:4 MN0@0:b 14
R121 s:4 s:30 0.896
R122 s:4 MN0@0:b 14
R123 s:30 s:99 1.288
R124 s:30 s:32 11.62
R125 s:30 s:3 2.632
R126 s:3 s:41 1.12
R127 s:3 MN0@0:b 14
R128 s:3 s:40 1.12
R129 s:3 MN0@0:b 14
R130 s:3 s:2 3.528
R131 s:3 MN0@0:b 14
R132 s:2 s:39 1.12
R133 s:2 MN0@0:b 14
R134 s:2 s:38 1.12
R135 s:2 MN0@0:b 14
R136 s:2 s:1 3.528
R137 s:2 MN0@0:b 14
R138 s:1 s:37 1.12
R139 s:1 MN0@0:b 14
R140 s:1 s:36 1.12
R141 s:1 MN0@0:b 14
R142 s:1 s:0 3.528
R143 s:1 MN0@0:b 14
R144 s:0 s:35 1.12
R145 s:0 MN0@0:b 14
R146 s:0 s:34 1.12
R147 s:0 MN0@0:b 14
R148 s:0 s:94 6.244
R149 s:0 MN0@0:b 14
R150 s:32 s:98 1.008
R151 s:32 s:11 1.54
R152 s:32 s:12 2.828
R153 s:12 s:59 2.268
R154 s:12 MN0@9:s 14
R155 s:12 s:107 1.092
R156 s:12 MN0@9:s 14
R157 s:12 s:13 4.368
R158 s:12 MN0@9:s 14
R159 s:13 s:61 2.268
R160 s:13 MN0@11:s 14
R161 s:13 s:108 1.092
R162 s:13 MN0@11:s 14
R163 s:13 s:14 4.368
R164 s:13 MN0@11:s 14
R165 s:14 s:63 2.268
R166 s:14 MN0@13:s 14
R167 s:14 s:109 1.092
R168 s:14 MN0@13:s 14
R169 s:109 s:62 3.36
R170 s:109 MN0@13:s 14
R171 s:108 s:60 3.36
R172 s:108 MN0@11:s 14
R173 s:107 s:58 3.36
R174 s:107 MN0@9:s 14
R175 s:11 s:57 2.268
R176 s:11 MN0@7:s 14
R177 s:11 s:106 1.092
R178 s:11 MN0@7:s 14
R179 s:11 s:10 4.368
R180 s:11 MN0@7:s 14
R181 s:10 s:55 2.268
R182 s:10 MN0@5:s 14
R183 s:10 s:105 1.092
R184 s:10 MN0@5:s 14
R185 s:10 s:9 4.368
R186 s:10 MN0@5:s 14
R187 s:9 s:53 2.268
R188 s:9 MN0@3:s 14
R189 s:9 s:104 1.092
R190 s:9 MN0@3:s 14
R191 s:9 s:8 4.368
R192 s:9 MN0@3:s 14
R193 s:8 s:51 2.268
R194 s:8 MN0@1:s 14
R195 s:8 s:103 1.092
R196 s:8 MN0@1:s 14
R197 s:8 s:7 4.368
R198 s:8 MN0@1:s 14
R199 s:7 s:49 2.268
R200 s:7 MN0@0:s 14
R201 s:7 s:102 1.092
R202 s:7 MN0@0:s 14
R203 s:7 s:96 1.092
R204 s:7 MN0@0:s 14
R205 s:102 s:48 3.36
R206 s:102 MN0@0:s 14
R207 s:103 s:50 3.36
R208 s:103 MN0@1:s 14
R209 s:104 s:52 3.36
R210 s:104 MN0@3:s 14
R211 s:105 s:54 3.36
R212 s:105 MN0@5:s 14
R213 s:106 s:56 3.36
R214 s:106 MN0@7:s 14
R215 s:114 s:86 3.36
R216 s:114 MN1@7:s 14
R217 s:113 s:84 3.36
R218 s:113 MN1@5:s 14
R219 s:112 s:82 3.36
R220 s:112 MN1@3:s 14
R221 s:111 s:80 3.36
R222 s:111 MN1@1:s 14
R223 s:110 s:78 3.36
R224 s:110 MN1@0:s 14
R225 MN0@0:b MN0@1:b 0.01
R226 MN0@1:b MN0@2:b 0.01
R227 MN0@2:b MN0@3:b 0.01
R228 MN0@3:b MN0@4:b 0.01
R229 MN0@4:b MN0@5:b 0.01
R230 MN0@5:b MN0@6:b 0.01
R231 MN0@6:b MN0@7:b 0.01
R232 MN0@7:b MN0@8:b 0.01
R233 MN0@8:b MN0@9:b 0.01
R234 MN0@9:b MN0@10:b 0.01
R235 MN0@10:b MN0@11:b 0.01
R236 MN0@11:b MN0@12:b 0.01
R237 MN0@12:b MN0@13:b 0.01
R238 MN0@13:b MN0@14:b 0.01
R239 MN0@1:s MN0@2:s 0.01
R240 MN0@3:s MN0@4:s 0.01
R241 MN0@5:s MN0@6:s 0.01
R242 MN0@7:s MN0@8:s 0.01
R243 MN0@9:s MN0@10:s 0.01
R244 MN0@11:s MN0@12:s 0.01
R245 MN0@13:s MN0@14:s 0.01
R246 MN1@0:b MN1@1:b 0.01
R247 MN1@1:b MN1@2:b 0.01
R248 MN1@2:b MN1@3:b 0.01
R249 MN1@3:b MN1@4:b 0.01
R250 MN1@4:b MN1@5:b 0.01
R251 MN1@5:b MN1@6:b 0.01
R252 MN1@6:b MN1@7:b 0.01
R253 MN1@7:b MN1@8:b 0.01
R254 MN1@8:b MN1@9:b 0.01
R255 MN1@9:b MN1@10:b 0.01
R256 MN1@10:b MN1@11:b 0.01
R257 MN1@11:b MN1@12:b 0.01
R258 MN1@12:b MN1@13:b 0.01
R259 MN1@13:b MN1@14:b 0.01
R260 MN1@1:s MN1@2:s 0.01
R261 MN1@3:s MN1@4:s 0.01
R262 MN1@5:s MN1@6:s 0.01
R263 MN1@7:s MN1@8:s 0.01
R264 MN1@9:s MN1@10:s 0.01
R265 MN1@11:s MN1@12:s 0.01
R266 MN1@13:s MN1@14:s 0.01
C1 s:22 0 1.701e-14
C2 s:22 0 8.190000000000001e-15
C3 s:22 0 3.2760000000000004e-14
C4 s:23 0 1.701e-14
C5 s:23 0 8.190000000000001e-15
C6 s:23 0 3.2760000000000004e-14
C7 s:24 0 1.701e-14
C8 s:24 0 8.190000000000001e-15
C9 s:24 0 3.2760000000000004e-14
C10 s:25 0 1.701e-14
C11 s:25 0 8.190000000000001e-15
C12 s:25 0 3.2760000000000004e-14
C13 s:26 0 1.701e-14
C14 s:26 0 8.190000000000001e-15
C15 s:26 0 1.155e-14
C16 s:33 0 8.715e-14
C17 s:33 0 7.56e-15
C18 s:33 0 2.1210000000000002e-14
C19 s:27 0 1.701e-14
C20 s:27 0 8.190000000000001e-15
C21 s:27 0 3.2760000000000004e-14
C22 s:28 0 1.701e-14
C23 s:28 0 8.190000000000001e-15
C24 s:28 0 3.2760000000000004e-14
C25 s:29 0 1.701e-14
C26 s:29 0 8.190000000000001e-15
C27 s:29 0 2.457e-14
C28 s:117 0 2.5200000000000002e-14
C29 s:116 0 2.5200000000000002e-14
C30 s:115 0 2.5200000000000002e-14
C31 s:31 0 9.66e-15
C32 s:31 0 1.974e-14
C33 s:31 0 6.72e-15
C34 s:19 0 8.400000000000001e-15
C35 s:19 0 8.400000000000001e-15
C36 s:19 0 2.6460000000000002e-14
C37 s:20 0 8.400000000000001e-15
C38 s:20 0 8.400000000000001e-15
C39 s:20 0 2.6460000000000002e-14
C40 s:21 0 8.400000000000001e-15
C41 s:21 0 8.400000000000001e-15
C42 s:21 0 4.683e-14
C43 s:18 0 8.400000000000001e-15
C44 s:18 0 8.400000000000001e-15
C45 s:18 0 2.6460000000000002e-14
C46 s:17 0 8.400000000000001e-15
C47 s:17 0 8.400000000000001e-15
C48 s:17 0 2.6460000000000002e-14
C49 s:16 0 8.400000000000001e-15
C50 s:16 0 8.400000000000001e-15
C51 s:16 0 2.6460000000000002e-14
C52 s:15 0 8.400000000000001e-15
C53 s:15 0 8.400000000000001e-15
C54 s:15 0 1.6884000000000002e-13
C55 s:6 0 8.400000000000001e-15
C56 s:6 0 8.400000000000001e-15
C57 s:6 0 2.6460000000000002e-14
C58 s:5 0 8.400000000000001e-15
C59 s:5 0 8.400000000000001e-15
C60 s:5 0 2.6460000000000002e-14
C61 s:4 0 8.400000000000001e-15
C62 s:4 0 8.400000000000001e-15
C63 s:4 0 6.720000000000024e-15
C64 s:30 0 9.66e-15
C65 s:30 0 8.715e-14
C66 s:30 0 1.9739999999999978e-14
C67 s:3 0 8.400000000000001e-15
C68 s:3 0 8.400000000000001e-15
C69 s:3 0 2.6460000000000002e-14
C70 s:2 0 8.400000000000001e-15
C71 s:2 0 8.400000000000001e-15
C72 s:2 0 2.6460000000000002e-14
C73 s:1 0 8.400000000000001e-15
C74 s:1 0 8.400000000000001e-15
C75 s:1 0 2.6460000000000002e-14
C76 s:0 0 8.400000000000001e-15
C77 s:0 0 8.400000000000001e-15
C78 s:0 0 4.683e-14
C79 s:32 0 7.56e-15
C80 s:32 0 1.155e-14
C81 s:32 0 2.1210000000000002e-14
C82 s:12 0 1.701e-14
C83 s:12 0 8.190000000000001e-15
C84 s:12 0 3.2760000000000004e-14
C85 s:13 0 1.701e-14
C86 s:13 0 8.190000000000001e-15
C87 s:13 0 3.2760000000000004e-14
C88 s:14 0 1.701e-14
C89 s:14 0 8.190000000000001e-15
C90 s:109 0 2.5200000000000002e-14
C91 s:108 0 2.5200000000000002e-14
C92 s:107 0 2.5200000000000002e-14
C93 s:11 0 1.701e-14
C94 s:11 0 8.190000000000001e-15
C95 s:11 0 3.2760000000000004e-14
C96 s:10 0 1.701e-14
C97 s:10 0 8.190000000000001e-15
C98 s:10 0 3.2760000000000004e-14
C99 s:9 0 1.701e-14
C100 s:9 0 8.190000000000001e-15
C101 s:9 0 3.2760000000000004e-14
C102 s:8 0 1.701e-14
C103 s:8 0 8.190000000000001e-15
C104 s:8 0 3.2760000000000004e-14
C105 s:7 0 1.701e-14
C106 s:7 0 8.190000000000001e-15
C107 s:7 0 8.190000000000001e-15
C108 s:102 0 2.5200000000000002e-14
C109 s:103 0 2.5200000000000002e-14
C110 s:104 0 2.5200000000000002e-14
C111 s:105 0 2.5200000000000002e-14
C112 s:106 0 2.5200000000000002e-14
C113 s:114 0 2.5200000000000002e-14
C114 s:113 0 2.5200000000000002e-14
C115 s:112 0 2.5200000000000002e-14
C116 s:111 0 2.5200000000000002e-14
C117 s:110 0 2.5200000000000002e-14


* Net:d0 ----------------


R267 d0 d0:3 2.184
R268 d0 d0:4 2.184
R269 d0:4 d0:88 1.092
R270 d0:4 MN0@8:d 14
R271 d0:4 d0:35 2.268
R272 d0:4 MN0@8:d 14
R273 d0:4 d0:5 4.368
R274 d0:4 MN0@8:d 14
R275 d0:5 d0:89 1.092
R276 d0:5 MN0@10:d 14
R277 d0:5 d0:37 2.268
R278 d0:5 MN0@10:d 14
R279 d0:5 d0:6 4.368
R280 d0:5 MN0@10:d 14
R281 d0:6 d0:90 1.092
R282 d0:6 MN0@12:d 14
R283 d0:6 d0:39 2.268
R284 d0:6 MN0@12:d 14
R285 d0:6 d0:7 4.368
R286 d0:6 MN0@12:d 14
R287 d0:7 d0:91 1.092
R288 d0:7 MN0@14:d 14
R289 d0:7 d0:41 2.268
R290 d0:7 MN0@14:d 14
R291 d0:7 d0:78 1.008
R292 d0:7 MN0@14:d 14
R293 d0:91 d0:42 3.36
R294 d0:91 MN0@14:d 14
R295 d0:90 d0:40 3.36
R296 d0:90 MN0@12:d 14
R297 d0:89 d0:38 3.36
R298 d0:89 MN0@10:d 14
R299 d0:88 d0:36 3.36
R300 d0:88 MN0@8:d 14
R301 d0:3 d0:87 1.092
R302 d0:3 MN0@6:d 14
R303 d0:3 d0:33 2.268
R304 d0:3 MN0@6:d 14
R305 d0:3 d0:26 0.644
R306 d0:3 MN0@6:d 14
R307 d0:26 d0:49 5.992
R308 d0:26 d0:79 1.008
R309 d0:26 d0:2 3.724
R310 d0:2 d0:86 1.092
R311 d0:2 MN0@4:d 14
R312 d0:2 d0:31 2.268
R313 d0:2 MN0@4:d 14
R314 d0:2 d0:1 4.368
R315 d0:2 MN0@4:d 14
R316 d0:1 d0:85 1.092
R317 d0:1 MN0@2:d 14
R318 d0:1 d0:29 2.268
R319 d0:1 MN0@2:d 14
R320 d0:1 d0:0 4.368
R321 d0:1 MN0@2:d 14
R322 d0:0 d0:84 1.092
R323 d0:0 MN0@0:d 14
R324 d0:0 d0:27 2.268
R325 d0:0 MN0@0:d 14
R326 d0:0 d0:77 1.008
R327 d0:0 MN0@0:d 14
R328 d0:84 d0:28 3.36
R329 d0:84 MN0@0:d 14
R330 d0:85 d0:30 3.36
R331 d0:85 MN0@2:d 14
R332 d0:86 d0:32 3.36
R333 d0:86 MN0@4:d 14
R334 d0:49 d0:11 1.12
R335 d0:11 d0:50 1.12
R336 d0:11 MN0@0:g 342
R337 d0:11 MN0@1:g 342
R338 d0:11 MN0@2:g 342
R339 d0:11 MN0@3:g 342
R340 d0:11 MN0@4:g 342
R341 d0:11 MN0@5:g 342
R342 d0:11 MN0@6:g 342
R343 d0:11 MN0@7:g 342
R344 d0:11 MN0@8:g 342
R345 d0:11 MN0@9:g 342
R346 d0:11 MN0@10:g 342
R347 d0:11 MN0@11:g 342
R348 d0:11 MN0@12:g 342
R349 d0:11 MN0@13:g 342
R350 d0:11 MN0@14:g 342
R351 d0:11 MN1@0:g 342
R352 d0:11 MN1@1:g 342
R353 d0:11 MN1@2:g 342
R354 d0:11 MN1@3:g 342
R355 d0:11 MN1@4:g 342
R356 d0:11 MN1@5:g 342
R357 d0:11 MN1@6:g 342
R358 d0:11 MN1@7:g 342
R359 d0:11 MN1@8:g 342
R360 d0:11 MN1@9:g 342
R361 d0:11 MN1@10:g 342
R362 d0:11 MN1@11:g 342
R363 d0:11 MN1@12:g 342
R364 d0:11 MN1@13:g 342
R365 d0:11 MN1@14:g 342
R366 d0:11 d0:10 3.528
R367 d0:11 MN0@0:g 342
R368 d0:11 MN0@1:g 342
R369 d0:11 MN0@2:g 342
R370 d0:11 MN0@3:g 342
R371 d0:11 MN0@4:g 342
R372 d0:11 MN0@5:g 342
R373 d0:11 MN0@6:g 342
R374 d0:11 MN0@7:g 342
R375 d0:11 MN0@8:g 342
R376 d0:11 MN0@9:g 342
R377 d0:11 MN0@10:g 342
R378 d0:11 MN0@11:g 342
R379 d0:11 MN0@12:g 342
R380 d0:11 MN0@13:g 342
R381 d0:11 MN0@14:g 342
R382 d0:11 MN1@0:g 342
R383 d0:11 MN1@1:g 342
R384 d0:11 MN1@2:g 342
R385 d0:11 MN1@3:g 342
R386 d0:11 MN1@4:g 342
R387 d0:11 MN1@5:g 342
R388 d0:11 MN1@6:g 342
R389 d0:11 MN1@7:g 342
R390 d0:11 MN1@8:g 342
R391 d0:11 MN1@9:g 342
R392 d0:11 MN1@10:g 342
R393 d0:11 MN1@11:g 342
R394 d0:11 MN1@12:g 342
R395 d0:11 MN1@13:g 342
R396 d0:11 MN1@14:g 342
R397 d0:11 d0:24 2.212
R398 d0:11 MN0@0:g 342
R399 d0:11 MN0@1:g 342
R400 d0:11 MN0@2:g 342
R401 d0:11 MN0@3:g 342
R402 d0:11 MN0@4:g 342
R403 d0:11 MN0@5:g 342
R404 d0:11 MN0@6:g 342
R405 d0:11 MN0@7:g 342
R406 d0:11 MN0@8:g 342
R407 d0:11 MN0@9:g 342
R408 d0:11 MN0@10:g 342
R409 d0:11 MN0@11:g 342
R410 d0:11 MN0@12:g 342
R411 d0:11 MN0@13:g 342
R412 d0:11 MN0@14:g 342
R413 d0:11 MN1@0:g 342
R414 d0:11 MN1@1:g 342
R415 d0:11 MN1@2:g 342
R416 d0:11 MN1@3:g 342
R417 d0:11 MN1@4:g 342
R418 d0:11 MN1@5:g 342
R419 d0:11 MN1@6:g 342
R420 d0:11 MN1@7:g 342
R421 d0:11 MN1@8:g 342
R422 d0:11 MN1@9:g 342
R423 d0:11 MN1@10:g 342
R424 d0:11 MN1@11:g 342
R425 d0:11 MN1@12:g 342
R426 d0:11 MN1@13:g 342
R427 d0:11 MN1@14:g 342
R428 d0:24 d0:81 1.008
R429 d0:24 d0:80 1.008
R430 d0:24 d0:12 1.316
R431 d0:12 d0:52 1.12
R432 d0:12 MN0@0:g 342
R433 d0:12 MN0@1:g 342
R434 d0:12 MN0@2:g 342
R435 d0:12 MN0@3:g 342
R436 d0:12 MN0@4:g 342
R437 d0:12 MN0@5:g 342
R438 d0:12 MN0@6:g 342
R439 d0:12 MN0@7:g 342
R440 d0:12 MN0@8:g 342
R441 d0:12 MN0@9:g 342
R442 d0:12 MN0@10:g 342
R443 d0:12 MN0@11:g 342
R444 d0:12 MN0@12:g 342
R445 d0:12 MN0@13:g 342
R446 d0:12 MN0@14:g 342
R447 d0:12 MN1@0:g 342
R448 d0:12 MN1@1:g 342
R449 d0:12 MN1@2:g 342
R450 d0:12 MN1@3:g 342
R451 d0:12 MN1@4:g 342
R452 d0:12 MN1@5:g 342
R453 d0:12 MN1@6:g 342
R454 d0:12 MN1@7:g 342
R455 d0:12 MN1@8:g 342
R456 d0:12 MN1@9:g 342
R457 d0:12 MN1@10:g 342
R458 d0:12 MN1@11:g 342
R459 d0:12 MN1@12:g 342
R460 d0:12 MN1@13:g 342
R461 d0:12 MN1@14:g 342
R462 d0:12 d0:51 1.12
R463 d0:12 MN0@0:g 342
R464 d0:12 MN0@1:g 342
R465 d0:12 MN0@2:g 342
R466 d0:12 MN0@3:g 342
R467 d0:12 MN0@4:g 342
R468 d0:12 MN0@5:g 342
R469 d0:12 MN0@6:g 342
R470 d0:12 MN0@7:g 342
R471 d0:12 MN0@8:g 342
R472 d0:12 MN0@9:g 342
R473 d0:12 MN0@10:g 342
R474 d0:12 MN0@11:g 342
R475 d0:12 MN0@12:g 342
R476 d0:12 MN0@13:g 342
R477 d0:12 MN0@14:g 342
R478 d0:12 MN1@0:g 342
R479 d0:12 MN1@1:g 342
R480 d0:12 MN1@2:g 342
R481 d0:12 MN1@3:g 342
R482 d0:12 MN1@4:g 342
R483 d0:12 MN1@5:g 342
R484 d0:12 MN1@6:g 342
R485 d0:12 MN1@7:g 342
R486 d0:12 MN1@8:g 342
R487 d0:12 MN1@9:g 342
R488 d0:12 MN1@10:g 342
R489 d0:12 MN1@11:g 342
R490 d0:12 MN1@12:g 342
R491 d0:12 MN1@13:g 342
R492 d0:12 MN1@14:g 342
R493 d0:12 d0:13 3.528
R494 d0:12 MN0@0:g 342
R495 d0:12 MN0@1:g 342
R496 d0:12 MN0@2:g 342
R497 d0:12 MN0@3:g 342
R498 d0:12 MN0@4:g 342
R499 d0:12 MN0@5:g 342
R500 d0:12 MN0@6:g 342
R501 d0:12 MN0@7:g 342
R502 d0:12 MN0@8:g 342
R503 d0:12 MN0@9:g 342
R504 d0:12 MN0@10:g 342
R505 d0:12 MN0@11:g 342
R506 d0:12 MN0@12:g 342
R507 d0:12 MN0@13:g 342
R508 d0:12 MN0@14:g 342
R509 d0:12 MN1@0:g 342
R510 d0:12 MN1@1:g 342
R511 d0:12 MN1@2:g 342
R512 d0:12 MN1@3:g 342
R513 d0:12 MN1@4:g 342
R514 d0:12 MN1@5:g 342
R515 d0:12 MN1@6:g 342
R516 d0:12 MN1@7:g 342
R517 d0:12 MN1@8:g 342
R518 d0:12 MN1@9:g 342
R519 d0:12 MN1@10:g 342
R520 d0:12 MN1@11:g 342
R521 d0:12 MN1@12:g 342
R522 d0:12 MN1@13:g 342
R523 d0:12 MN1@14:g 342
R524 d0:13 d0:54 1.12
R525 d0:13 MN0@0:g 342
R526 d0:13 MN0@1:g 342
R527 d0:13 MN0@2:g 342
R528 d0:13 MN0@3:g 342
R529 d0:13 MN0@4:g 342
R530 d0:13 MN0@5:g 342
R531 d0:13 MN0@6:g 342
R532 d0:13 MN0@7:g 342
R533 d0:13 MN0@8:g 342
R534 d0:13 MN0@9:g 342
R535 d0:13 MN0@10:g 342
R536 d0:13 MN0@11:g 342
R537 d0:13 MN0@12:g 342
R538 d0:13 MN0@13:g 342
R539 d0:13 MN0@14:g 342
R540 d0:13 MN1@0:g 342
R541 d0:13 MN1@1:g 342
R542 d0:13 MN1@2:g 342
R543 d0:13 MN1@3:g 342
R544 d0:13 MN1@4:g 342
R545 d0:13 MN1@5:g 342
R546 d0:13 MN1@6:g 342
R547 d0:13 MN1@7:g 342
R548 d0:13 MN1@8:g 342
R549 d0:13 MN1@9:g 342
R550 d0:13 MN1@10:g 342
R551 d0:13 MN1@11:g 342
R552 d0:13 MN1@12:g 342
R553 d0:13 MN1@13:g 342
R554 d0:13 MN1@14:g 342
R555 d0:13 d0:53 1.12
R556 d0:13 MN0@0:g 342
R557 d0:13 MN0@1:g 342
R558 d0:13 MN0@2:g 342
R559 d0:13 MN0@3:g 342
R560 d0:13 MN0@4:g 342
R561 d0:13 MN0@5:g 342
R562 d0:13 MN0@6:g 342
R563 d0:13 MN0@7:g 342
R564 d0:13 MN0@8:g 342
R565 d0:13 MN0@9:g 342
R566 d0:13 MN0@10:g 342
R567 d0:13 MN0@11:g 342
R568 d0:13 MN0@12:g 342
R569 d0:13 MN0@13:g 342
R570 d0:13 MN0@14:g 342
R571 d0:13 MN1@0:g 342
R572 d0:13 MN1@1:g 342
R573 d0:13 MN1@2:g 342
R574 d0:13 MN1@3:g 342
R575 d0:13 MN1@4:g 342
R576 d0:13 MN1@5:g 342
R577 d0:13 MN1@6:g 342
R578 d0:13 MN1@7:g 342
R579 d0:13 MN1@8:g 342
R580 d0:13 MN1@9:g 342
R581 d0:13 MN1@10:g 342
R582 d0:13 MN1@11:g 342
R583 d0:13 MN1@12:g 342
R584 d0:13 MN1@13:g 342
R585 d0:13 MN1@14:g 342
R586 d0:13 d0:14 3.528
R587 d0:13 MN0@0:g 342
R588 d0:13 MN0@1:g 342
R589 d0:13 MN0@2:g 342
R590 d0:13 MN0@3:g 342
R591 d0:13 MN0@4:g 342
R592 d0:13 MN0@5:g 342
R593 d0:13 MN0@6:g 342
R594 d0:13 MN0@7:g 342
R595 d0:13 MN0@8:g 342
R596 d0:13 MN0@9:g 342
R597 d0:13 MN0@10:g 342
R598 d0:13 MN0@11:g 342
R599 d0:13 MN0@12:g 342
R600 d0:13 MN0@13:g 342
R601 d0:13 MN0@14:g 342
R602 d0:13 MN1@0:g 342
R603 d0:13 MN1@1:g 342
R604 d0:13 MN1@2:g 342
R605 d0:13 MN1@3:g 342
R606 d0:13 MN1@4:g 342
R607 d0:13 MN1@5:g 342
R608 d0:13 MN1@6:g 342
R609 d0:13 MN1@7:g 342
R610 d0:13 MN1@8:g 342
R611 d0:13 MN1@9:g 342
R612 d0:13 MN1@10:g 342
R613 d0:13 MN1@11:g 342
R614 d0:13 MN1@12:g 342
R615 d0:13 MN1@13:g 342
R616 d0:13 MN1@14:g 342
R617 d0:14 d0:56 1.12
R618 d0:14 MN0@0:g 342
R619 d0:14 MN0@1:g 342
R620 d0:14 MN0@2:g 342
R621 d0:14 MN0@3:g 342
R622 d0:14 MN0@4:g 342
R623 d0:14 MN0@5:g 342
R624 d0:14 MN0@6:g 342
R625 d0:14 MN0@7:g 342
R626 d0:14 MN0@8:g 342
R627 d0:14 MN0@9:g 342
R628 d0:14 MN0@10:g 342
R629 d0:14 MN0@11:g 342
R630 d0:14 MN0@12:g 342
R631 d0:14 MN0@13:g 342
R632 d0:14 MN0@14:g 342
R633 d0:14 MN1@0:g 342
R634 d0:14 MN1@1:g 342
R635 d0:14 MN1@2:g 342
R636 d0:14 MN1@3:g 342
R637 d0:14 MN1@4:g 342
R638 d0:14 MN1@5:g 342
R639 d0:14 MN1@6:g 342
R640 d0:14 MN1@7:g 342
R641 d0:14 MN1@8:g 342
R642 d0:14 MN1@9:g 342
R643 d0:14 MN1@10:g 342
R644 d0:14 MN1@11:g 342
R645 d0:14 MN1@12:g 342
R646 d0:14 MN1@13:g 342
R647 d0:14 MN1@14:g 342
R648 d0:14 d0:55 1.12
R649 d0:14 MN0@0:g 342
R650 d0:14 MN0@1:g 342
R651 d0:14 MN0@2:g 342
R652 d0:14 MN0@3:g 342
R653 d0:14 MN0@4:g 342
R654 d0:14 MN0@5:g 342
R655 d0:14 MN0@6:g 342
R656 d0:14 MN0@7:g 342
R657 d0:14 MN0@8:g 342
R658 d0:14 MN0@9:g 342
R659 d0:14 MN0@10:g 342
R660 d0:14 MN0@11:g 342
R661 d0:14 MN0@12:g 342
R662 d0:14 MN0@13:g 342
R663 d0:14 MN0@14:g 342
R664 d0:14 MN1@0:g 342
R665 d0:14 MN1@1:g 342
R666 d0:14 MN1@2:g 342
R667 d0:14 MN1@3:g 342
R668 d0:14 MN1@4:g 342
R669 d0:14 MN1@5:g 342
R670 d0:14 MN1@6:g 342
R671 d0:14 MN1@7:g 342
R672 d0:14 MN1@8:g 342
R673 d0:14 MN1@9:g 342
R674 d0:14 MN1@10:g 342
R675 d0:14 MN1@11:g 342
R676 d0:14 MN1@12:g 342
R677 d0:14 MN1@13:g 342
R678 d0:14 MN1@14:g 342
R679 d0:14 d0:15 3.528
R680 d0:14 MN0@0:g 342
R681 d0:14 MN0@1:g 342
R682 d0:14 MN0@2:g 342
R683 d0:14 MN0@3:g 342
R684 d0:14 MN0@4:g 342
R685 d0:14 MN0@5:g 342
R686 d0:14 MN0@6:g 342
R687 d0:14 MN0@7:g 342
R688 d0:14 MN0@8:g 342
R689 d0:14 MN0@9:g 342
R690 d0:14 MN0@10:g 342
R691 d0:14 MN0@11:g 342
R692 d0:14 MN0@12:g 342
R693 d0:14 MN0@13:g 342
R694 d0:14 MN0@14:g 342
R695 d0:14 MN1@0:g 342
R696 d0:14 MN1@1:g 342
R697 d0:14 MN1@2:g 342
R698 d0:14 MN1@3:g 342
R699 d0:14 MN1@4:g 342
R700 d0:14 MN1@5:g 342
R701 d0:14 MN1@6:g 342
R702 d0:14 MN1@7:g 342
R703 d0:14 MN1@8:g 342
R704 d0:14 MN1@9:g 342
R705 d0:14 MN1@10:g 342
R706 d0:14 MN1@11:g 342
R707 d0:14 MN1@12:g 342
R708 d0:14 MN1@13:g 342
R709 d0:14 MN1@14:g 342
R710 d0:15 d0:58 1.12
R711 d0:15 MN0@0:g 342
R712 d0:15 MN0@1:g 342
R713 d0:15 MN0@2:g 342
R714 d0:15 MN0@3:g 342
R715 d0:15 MN0@4:g 342
R716 d0:15 MN0@5:g 342
R717 d0:15 MN0@6:g 342
R718 d0:15 MN0@7:g 342
R719 d0:15 MN0@8:g 342
R720 d0:15 MN0@9:g 342
R721 d0:15 MN0@10:g 342
R722 d0:15 MN0@11:g 342
R723 d0:15 MN0@12:g 342
R724 d0:15 MN0@13:g 342
R725 d0:15 MN0@14:g 342
R726 d0:15 MN1@0:g 342
R727 d0:15 MN1@1:g 342
R728 d0:15 MN1@2:g 342
R729 d0:15 MN1@3:g 342
R730 d0:15 MN1@4:g 342
R731 d0:15 MN1@5:g 342
R732 d0:15 MN1@6:g 342
R733 d0:15 MN1@7:g 342
R734 d0:15 MN1@8:g 342
R735 d0:15 MN1@9:g 342
R736 d0:15 MN1@10:g 342
R737 d0:15 MN1@11:g 342
R738 d0:15 MN1@12:g 342
R739 d0:15 MN1@13:g 342
R740 d0:15 MN1@14:g 342
R741 d0:15 d0:57 1.12
R742 d0:15 MN0@0:g 342
R743 d0:15 MN0@1:g 342
R744 d0:15 MN0@2:g 342
R745 d0:15 MN0@3:g 342
R746 d0:15 MN0@4:g 342
R747 d0:15 MN0@5:g 342
R748 d0:15 MN0@6:g 342
R749 d0:15 MN0@7:g 342
R750 d0:15 MN0@8:g 342
R751 d0:15 MN0@9:g 342
R752 d0:15 MN0@10:g 342
R753 d0:15 MN0@11:g 342
R754 d0:15 MN0@12:g 342
R755 d0:15 MN0@13:g 342
R756 d0:15 MN0@14:g 342
R757 d0:15 MN1@0:g 342
R758 d0:15 MN1@1:g 342
R759 d0:15 MN1@2:g 342
R760 d0:15 MN1@3:g 342
R761 d0:15 MN1@4:g 342
R762 d0:15 MN1@5:g 342
R763 d0:15 MN1@6:g 342
R764 d0:15 MN1@7:g 342
R765 d0:15 MN1@8:g 342
R766 d0:15 MN1@9:g 342
R767 d0:15 MN1@10:g 342
R768 d0:15 MN1@11:g 342
R769 d0:15 MN1@12:g 342
R770 d0:15 MN1@13:g 342
R771 d0:15 MN1@14:g 342
R772 d0:15 d0:16 18.984
R773 d0:15 MN0@0:g 342
R774 d0:15 MN0@1:g 342
R775 d0:15 MN0@2:g 342
R776 d0:15 MN0@3:g 342
R777 d0:15 MN0@4:g 342
R778 d0:15 MN0@5:g 342
R779 d0:15 MN0@6:g 342
R780 d0:15 MN0@7:g 342
R781 d0:15 MN0@8:g 342
R782 d0:15 MN0@9:g 342
R783 d0:15 MN0@10:g 342
R784 d0:15 MN0@11:g 342
R785 d0:15 MN0@12:g 342
R786 d0:15 MN0@13:g 342
R787 d0:15 MN0@14:g 342
R788 d0:15 MN1@0:g 342
R789 d0:15 MN1@1:g 342
R790 d0:15 MN1@2:g 342
R791 d0:15 MN1@3:g 342
R792 d0:15 MN1@4:g 342
R793 d0:15 MN1@5:g 342
R794 d0:15 MN1@6:g 342
R795 d0:15 MN1@7:g 342
R796 d0:15 MN1@8:g 342
R797 d0:15 MN1@9:g 342
R798 d0:15 MN1@10:g 342
R799 d0:15 MN1@11:g 342
R800 d0:15 MN1@12:g 342
R801 d0:15 MN1@13:g 342
R802 d0:15 MN1@14:g 342
R803 d0:16 d0:60 1.12
R804 d0:16 MN0@0:g 342
R805 d0:16 MN0@1:g 342
R806 d0:16 MN0@2:g 342
R807 d0:16 MN0@3:g 342
R808 d0:16 MN0@4:g 342
R809 d0:16 MN0@5:g 342
R810 d0:16 MN0@6:g 342
R811 d0:16 MN0@7:g 342
R812 d0:16 MN0@8:g 342
R813 d0:16 MN0@9:g 342
R814 d0:16 MN0@10:g 342
R815 d0:16 MN0@11:g 342
R816 d0:16 MN0@12:g 342
R817 d0:16 MN0@13:g 342
R818 d0:16 MN0@14:g 342
R819 d0:16 MN1@0:g 342
R820 d0:16 MN1@1:g 342
R821 d0:16 MN1@2:g 342
R822 d0:16 MN1@3:g 342
R823 d0:16 MN1@4:g 342
R824 d0:16 MN1@5:g 342
R825 d0:16 MN1@6:g 342
R826 d0:16 MN1@7:g 342
R827 d0:16 MN1@8:g 342
R828 d0:16 MN1@9:g 342
R829 d0:16 MN1@10:g 342
R830 d0:16 MN1@11:g 342
R831 d0:16 MN1@12:g 342
R832 d0:16 MN1@13:g 342
R833 d0:16 MN1@14:g 342
R834 d0:16 d0:59 1.12
R835 d0:16 MN0@0:g 342
R836 d0:16 MN0@1:g 342
R837 d0:16 MN0@2:g 342
R838 d0:16 MN0@3:g 342
R839 d0:16 MN0@4:g 342
R840 d0:16 MN0@5:g 342
R841 d0:16 MN0@6:g 342
R842 d0:16 MN0@7:g 342
R843 d0:16 MN0@8:g 342
R844 d0:16 MN0@9:g 342
R845 d0:16 MN0@10:g 342
R846 d0:16 MN0@11:g 342
R847 d0:16 MN0@12:g 342
R848 d0:16 MN0@13:g 342
R849 d0:16 MN0@14:g 342
R850 d0:16 MN1@0:g 342
R851 d0:16 MN1@1:g 342
R852 d0:16 MN1@2:g 342
R853 d0:16 MN1@3:g 342
R854 d0:16 MN1@4:g 342
R855 d0:16 MN1@5:g 342
R856 d0:16 MN1@6:g 342
R857 d0:16 MN1@7:g 342
R858 d0:16 MN1@8:g 342
R859 d0:16 MN1@9:g 342
R860 d0:16 MN1@10:g 342
R861 d0:16 MN1@11:g 342
R862 d0:16 MN1@12:g 342
R863 d0:16 MN1@13:g 342
R864 d0:16 MN1@14:g 342
R865 d0:16 d0:17 3.528
R866 d0:16 MN0@0:g 342
R867 d0:16 MN0@1:g 342
R868 d0:16 MN0@2:g 342
R869 d0:16 MN0@3:g 342
R870 d0:16 MN0@4:g 342
R871 d0:16 MN0@5:g 342
R872 d0:16 MN0@6:g 342
R873 d0:16 MN0@7:g 342
R874 d0:16 MN0@8:g 342
R875 d0:16 MN0@9:g 342
R876 d0:16 MN0@10:g 342
R877 d0:16 MN0@11:g 342
R878 d0:16 MN0@12:g 342
R879 d0:16 MN0@13:g 342
R880 d0:16 MN0@14:g 342
R881 d0:16 MN1@0:g 342
R882 d0:16 MN1@1:g 342
R883 d0:16 MN1@2:g 342
R884 d0:16 MN1@3:g 342
R885 d0:16 MN1@4:g 342
R886 d0:16 MN1@5:g 342
R887 d0:16 MN1@6:g 342
R888 d0:16 MN1@7:g 342
R889 d0:16 MN1@8:g 342
R890 d0:16 MN1@9:g 342
R891 d0:16 MN1@10:g 342
R892 d0:16 MN1@11:g 342
R893 d0:16 MN1@12:g 342
R894 d0:16 MN1@13:g 342
R895 d0:16 MN1@14:g 342
R896 d0:17 d0:62 1.12
R897 d0:17 MN0@0:g 342
R898 d0:17 MN0@1:g 342
R899 d0:17 MN0@2:g 342
R900 d0:17 MN0@3:g 342
R901 d0:17 MN0@4:g 342
R902 d0:17 MN0@5:g 342
R903 d0:17 MN0@6:g 342
R904 d0:17 MN0@7:g 342
R905 d0:17 MN0@8:g 342
R906 d0:17 MN0@9:g 342
R907 d0:17 MN0@10:g 342
R908 d0:17 MN0@11:g 342
R909 d0:17 MN0@12:g 342
R910 d0:17 MN0@13:g 342
R911 d0:17 MN0@14:g 342
R912 d0:17 MN1@0:g 342
R913 d0:17 MN1@1:g 342
R914 d0:17 MN1@2:g 342
R915 d0:17 MN1@3:g 342
R916 d0:17 MN1@4:g 342
R917 d0:17 MN1@5:g 342
R918 d0:17 MN1@6:g 342
R919 d0:17 MN1@7:g 342
R920 d0:17 MN1@8:g 342
R921 d0:17 MN1@9:g 342
R922 d0:17 MN1@10:g 342
R923 d0:17 MN1@11:g 342
R924 d0:17 MN1@12:g 342
R925 d0:17 MN1@13:g 342
R926 d0:17 MN1@14:g 342
R927 d0:17 d0:61 1.12
R928 d0:17 MN0@0:g 342
R929 d0:17 MN0@1:g 342
R930 d0:17 MN0@2:g 342
R931 d0:17 MN0@3:g 342
R932 d0:17 MN0@4:g 342
R933 d0:17 MN0@5:g 342
R934 d0:17 MN0@6:g 342
R935 d0:17 MN0@7:g 342
R936 d0:17 MN0@8:g 342
R937 d0:17 MN0@9:g 342
R938 d0:17 MN0@10:g 342
R939 d0:17 MN0@11:g 342
R940 d0:17 MN0@12:g 342
R941 d0:17 MN0@13:g 342
R942 d0:17 MN0@14:g 342
R943 d0:17 MN1@0:g 342
R944 d0:17 MN1@1:g 342
R945 d0:17 MN1@2:g 342
R946 d0:17 MN1@3:g 342
R947 d0:17 MN1@4:g 342
R948 d0:17 MN1@5:g 342
R949 d0:17 MN1@6:g 342
R950 d0:17 MN1@7:g 342
R951 d0:17 MN1@8:g 342
R952 d0:17 MN1@9:g 342
R953 d0:17 MN1@10:g 342
R954 d0:17 MN1@11:g 342
R955 d0:17 MN1@12:g 342
R956 d0:17 MN1@13:g 342
R957 d0:17 MN1@14:g 342
R958 d0:17 d0:18 3.528
R959 d0:17 MN0@0:g 342
R960 d0:17 MN0@1:g 342
R961 d0:17 MN0@2:g 342
R962 d0:17 MN0@3:g 342
R963 d0:17 MN0@4:g 342
R964 d0:17 MN0@5:g 342
R965 d0:17 MN0@6:g 342
R966 d0:17 MN0@7:g 342
R967 d0:17 MN0@8:g 342
R968 d0:17 MN0@9:g 342
R969 d0:17 MN0@10:g 342
R970 d0:17 MN0@11:g 342
R971 d0:17 MN0@12:g 342
R972 d0:17 MN0@13:g 342
R973 d0:17 MN0@14:g 342
R974 d0:17 MN1@0:g 342
R975 d0:17 MN1@1:g 342
R976 d0:17 MN1@2:g 342
R977 d0:17 MN1@3:g 342
R978 d0:17 MN1@4:g 342
R979 d0:17 MN1@5:g 342
R980 d0:17 MN1@6:g 342
R981 d0:17 MN1@7:g 342
R982 d0:17 MN1@8:g 342
R983 d0:17 MN1@9:g 342
R984 d0:17 MN1@10:g 342
R985 d0:17 MN1@11:g 342
R986 d0:17 MN1@12:g 342
R987 d0:17 MN1@13:g 342
R988 d0:17 MN1@14:g 342
R989 d0:18 d0:64 1.12
R990 d0:18 MN0@0:g 342
R991 d0:18 MN0@1:g 342
R992 d0:18 MN0@2:g 342
R993 d0:18 MN0@3:g 342
R994 d0:18 MN0@4:g 342
R995 d0:18 MN0@5:g 342
R996 d0:18 MN0@6:g 342
R997 d0:18 MN0@7:g 342
R998 d0:18 MN0@8:g 342
R999 d0:18 MN0@9:g 342
R1000 d0:18 MN0@10:g 342
R1001 d0:18 MN0@11:g 342
R1002 d0:18 MN0@12:g 342
R1003 d0:18 MN0@13:g 342
R1004 d0:18 MN0@14:g 342
R1005 d0:18 MN1@0:g 342
R1006 d0:18 MN1@1:g 342
R1007 d0:18 MN1@2:g 342
R1008 d0:18 MN1@3:g 342
R1009 d0:18 MN1@4:g 342
R1010 d0:18 MN1@5:g 342
R1011 d0:18 MN1@6:g 342
R1012 d0:18 MN1@7:g 342
R1013 d0:18 MN1@8:g 342
R1014 d0:18 MN1@9:g 342
R1015 d0:18 MN1@10:g 342
R1016 d0:18 MN1@11:g 342
R1017 d0:18 MN1@12:g 342
R1018 d0:18 MN1@13:g 342
R1019 d0:18 MN1@14:g 342
R1020 d0:18 d0:63 1.12
R1021 d0:18 MN0@0:g 342
R1022 d0:18 MN0@1:g 342
R1023 d0:18 MN0@2:g 342
R1024 d0:18 MN0@3:g 342
R1025 d0:18 MN0@4:g 342
R1026 d0:18 MN0@5:g 342
R1027 d0:18 MN0@6:g 342
R1028 d0:18 MN0@7:g 342
R1029 d0:18 MN0@8:g 342
R1030 d0:18 MN0@9:g 342
R1031 d0:18 MN0@10:g 342
R1032 d0:18 MN0@11:g 342
R1033 d0:18 MN0@12:g 342
R1034 d0:18 MN0@13:g 342
R1035 d0:18 MN0@14:g 342
R1036 d0:18 MN1@0:g 342
R1037 d0:18 MN1@1:g 342
R1038 d0:18 MN1@2:g 342
R1039 d0:18 MN1@3:g 342
R1040 d0:18 MN1@4:g 342
R1041 d0:18 MN1@5:g 342
R1042 d0:18 MN1@6:g 342
R1043 d0:18 MN1@7:g 342
R1044 d0:18 MN1@8:g 342
R1045 d0:18 MN1@9:g 342
R1046 d0:18 MN1@10:g 342
R1047 d0:18 MN1@11:g 342
R1048 d0:18 MN1@12:g 342
R1049 d0:18 MN1@13:g 342
R1050 d0:18 MN1@14:g 342
R1051 d0:18 d0:19 3.528
R1052 d0:18 MN0@0:g 342
R1053 d0:18 MN0@1:g 342
R1054 d0:18 MN0@2:g 342
R1055 d0:18 MN0@3:g 342
R1056 d0:18 MN0@4:g 342
R1057 d0:18 MN0@5:g 342
R1058 d0:18 MN0@6:g 342
R1059 d0:18 MN0@7:g 342
R1060 d0:18 MN0@8:g 342
R1061 d0:18 MN0@9:g 342
R1062 d0:18 MN0@10:g 342
R1063 d0:18 MN0@11:g 342
R1064 d0:18 MN0@12:g 342
R1065 d0:18 MN0@13:g 342
R1066 d0:18 MN0@14:g 342
R1067 d0:18 MN1@0:g 342
R1068 d0:18 MN1@1:g 342
R1069 d0:18 MN1@2:g 342
R1070 d0:18 MN1@3:g 342
R1071 d0:18 MN1@4:g 342
R1072 d0:18 MN1@5:g 342
R1073 d0:18 MN1@6:g 342
R1074 d0:18 MN1@7:g 342
R1075 d0:18 MN1@8:g 342
R1076 d0:18 MN1@9:g 342
R1077 d0:18 MN1@10:g 342
R1078 d0:18 MN1@11:g 342
R1079 d0:18 MN1@12:g 342
R1080 d0:18 MN1@13:g 342
R1081 d0:18 MN1@14:g 342
R1082 d0:19 d0:66 1.12
R1083 d0:19 MN0@0:g 342
R1084 d0:19 MN0@1:g 342
R1085 d0:19 MN0@2:g 342
R1086 d0:19 MN0@3:g 342
R1087 d0:19 MN0@4:g 342
R1088 d0:19 MN0@5:g 342
R1089 d0:19 MN0@6:g 342
R1090 d0:19 MN0@7:g 342
R1091 d0:19 MN0@8:g 342
R1092 d0:19 MN0@9:g 342
R1093 d0:19 MN0@10:g 342
R1094 d0:19 MN0@11:g 342
R1095 d0:19 MN0@12:g 342
R1096 d0:19 MN0@13:g 342
R1097 d0:19 MN0@14:g 342
R1098 d0:19 MN1@0:g 342
R1099 d0:19 MN1@1:g 342
R1100 d0:19 MN1@2:g 342
R1101 d0:19 MN1@3:g 342
R1102 d0:19 MN1@4:g 342
R1103 d0:19 MN1@5:g 342
R1104 d0:19 MN1@6:g 342
R1105 d0:19 MN1@7:g 342
R1106 d0:19 MN1@8:g 342
R1107 d0:19 MN1@9:g 342
R1108 d0:19 MN1@10:g 342
R1109 d0:19 MN1@11:g 342
R1110 d0:19 MN1@12:g 342
R1111 d0:19 MN1@13:g 342
R1112 d0:19 MN1@14:g 342
R1113 d0:19 d0:65 1.12
R1114 d0:19 MN0@0:g 342
R1115 d0:19 MN0@1:g 342
R1116 d0:19 MN0@2:g 342
R1117 d0:19 MN0@3:g 342
R1118 d0:19 MN0@4:g 342
R1119 d0:19 MN0@5:g 342
R1120 d0:19 MN0@6:g 342
R1121 d0:19 MN0@7:g 342
R1122 d0:19 MN0@8:g 342
R1123 d0:19 MN0@9:g 342
R1124 d0:19 MN0@10:g 342
R1125 d0:19 MN0@11:g 342
R1126 d0:19 MN0@12:g 342
R1127 d0:19 MN0@13:g 342
R1128 d0:19 MN0@14:g 342
R1129 d0:19 MN1@0:g 342
R1130 d0:19 MN1@1:g 342
R1131 d0:19 MN1@2:g 342