*|DSPF	1.5
*|DESIGN	nmos_cm_5x15x1_111_3
*|DATE	"Wed Jun 19 2025"
*|VENDOR	"Mentor Graphics Corporation"
*|PROGRAM	"Calibre xACT"
*|VERSION	"v2020.4_34.17"
*|DIVIDER	|
*|DELIMITER	:
*|BUSBIT	[]
* Corner Name: 12lp_11M_3Mx_4Cx_2Kx_2Gx_LB_nominal_detailed_25
* Nominal Temperature: 25C
* Circuit Temperature: 25C
*

* Integrated TICER reduction is not enabled.
* SHORT DELAY THRESHOLD: 2e-14
* Fill Mode: NG
* PEX REDUCE CC ABSOLUTE : disabled
* PEX REDUCE CC RATIO : disabled
* Delta transform mode : 344834

.subckt nmos_cm_5x15x1_111_3 d0 d1 s

* Net:s ----------------


R1 s s:60 10.528
R2 s s:186 1.008
R3 s s:29 7.644
R4 s s:31 5.46
R5 s:31 s:125 1.176
R6 s:31 MN1@7:s 14
R7 s:31 s:203 2.184
R8 s:31 MN1@7:s 14
R9 s:31 s:61 5.46
R10 s:31 MN1@7:s 14
R11 s:31 s:33 13.104
R12 s:31 MN1@7:s 14
R13 s:33 s:129 1.176
R14 s:33 MN0@8:s 14
R15 s:33 s:204 2.184
R16 s:33 MN0@8:s 14
R17 s:33 s:35 13.104
R18 s:33 MN0@8:s 14
R19 s:35 s:133 1.176
R20 s:35 MN1@8:s 14
R21 s:35 s:205 2.184
R22 s:35 MN1@8:s 14
R23 s:35 s:37 13.104
R24 s:35 MN1@8:s 14
R25 s:37 s:137 1.176
R26 s:37 MN0@9:s 14
R27 s:37 s:206 2.184
R28 s:37 MN0@9:s 14
R29 s:37 s:39 13.104
R30 s:37 MN0@9:s 14
R31 s:39 s:141 1.176
R32 s:39 MN1@9:s 14
R33 s:39 s:207 2.184
R34 s:39 MN1@9:s 14
R35 s:39 s:41 13.104
R36 s:39 MN1@9:s 14
R37 s:41 s:145 1.176
R38 s:41 MN0@10:s 14
R39 s:41 s:208 2.184
R40 s:41 MN0@10:s 14
R41 s:41 s:43 13.104
R42 s:41 MN0@10:s 14
R43 s:43 s:149 1.176
R44 s:43 MN1@10:s 14
R45 s:43 s:209 2.184
R46 s:43 MN1@10:s 14
R47 s:43 s:45 13.104
R48 s:43 MN1@10:s 14
R49 s:45 s:153 1.176
R50 s:45 MN0@11:s 14
R51 s:45 s:210 2.184
R52 s:45 MN0@11:s 14
R53 s:45 s:47 13.104
R54 s:45 MN0@11:s 14
R55 s:47 s:157 1.176
R56 s:47 MN1@11:s 14
R57 s:47 s:211 2.184
R58 s:47 MN1@11:s 14
R59 s:47 s:49 13.104
R60 s:47 MN1@11:s 14
R61 s:49 s:161 1.176
R62 s:49 MN0@12:s 14
R63 s:49 s:212 2.184
R64 s:49 MN0@12:s 14
R65 s:49 s:51 13.104
R66 s:49 MN0@12:s 14
R67 s:51 s:165 1.176
R68 s:51 MN1@12:s 14
R69 s:51 s:213 2.184
R70 s:51 MN1@12:s 14
R71 s:51 s:53 13.104
R72 s:51 MN1@12:s 14
R73 s:53 s:169 1.176
R74 s:53 MN0@13:s 14
R75 s:53 s:214 2.184
R76 s:53 MN0@13:s 14
R77 s:53 s:55 13.104
R78 s:53 MN0@13:s 14
R79 s:55 s:173 1.176
R80 s:55 MN1@13:s 14
R81 s:55 s:215 2.184
R82 s:55 MN1@13:s 14
R83 s:55 s:57 13.104
R84 s:55 MN1@13:s 14
R85 s:57 s:177 1.176
R86 s:57 MN0@14:s 14
R87 s:57 s:216 2.184
R88 s:57 MN0@14:s 14
R89 s:57 s:59 13.104
R90 s:57 MN0@14:s 14
R91 s:59 s:181 1.176
R92 s:59 MN1@14:s 14
R93 s:59 s:217 2.184
R94 s:59 MN1@14:s 14
R95 s:59 s:185 3.192
R96 s:59 MN1@14:s 14
R97 s:217 s:180 3.36
R98 s:217 MN1@14:s 14
R99 s:216 s:176 3.36
R100 s:216 MN0@14:s 14
R101 s:215 s:172 3.36
R102 s:215 MN1@13:s 14
R103 s:214 s:168 3.36
R104 s:214 MN0@13:s 14
R105 s:213 s:164 3.36
R106 s:213 MN1@12:s 14
R107 s:212 s:160 3.36
R108 s:212 MN0@12:s 14
R109 s:211 s:156 3.36
R110 s:211 MN1@11:s 14
R111 s:210 s:152 3.36
R112 s:210 MN0@11:s 14
R113 s:209 s:148 3.36
R114 s:209 MN1@10:s 14
R115 s:208 s:144 3.36
R116 s:208 MN0@10:s 14
R117 s:207 s:140 3.36
R118 s:207 MN1@9:s 14
R119 s:206 s:136 3.36
R120 s:206 MN0@9:s 14
R121 s:205 s:132 3.36
R122 s:205 MN1@8:s 14
R123 s:204 s:128 3.36
R124 s:204 MN0@8:s 14
R125 s:61 s:60 10.528
R126 s:61 s:186 1.008
R127 s:61 s:29 7.644
R128 s:29 s:121 1.176
R129 s:29 MN0@7:s 14
R130 s:29 s:202 2.184
R131 s:29 MN0@7:s 14
R132 s:29 s:27 13.104
R133 s:29 MN0@7:s 14
R134 s:27 s:117 1.176
R135 s:27 MN1@6:s 14
R136 s:27 s:201 2.184
R137 s:27 MN1@6:s 14
R138 s:27 s:25 13.104
R139 s:27 MN1@6:s 14
R140 s:25 s:113 1.176
R141 s:25 MN0@6:s 14
R142 s:25 s:200 2.184
R143 s:25 MN0@6:s 14
R144 s:25 s:23 13.104
R145 s:25 MN0@6:s 14
R146 s:23 s:109 1.176
R147 s:23 MN1@5:s 14
R148 s:23 s:199 2.184
R149 s:23 MN1@5:s 14
R150 s:23 s:21 13.104
R151 s:23 MN1@5:s 14
R152 s:21 s:105 1.176
R153 s:21 MN0@5:s 14
R154 s:21 s:198 2.184
R155 s:21 MN0@5:s 14
R156 s:21 s:19 13.104
R157 s:21 MN0@5:s 14
R158 s:19 s:101 1.176
R159 s:19 MN1@4:s 14
R160 s:19 s:197 2.184
R161 s:19 MN1@4:s 14
R162 s:19 s:17 13.104
R163 s:19 MN1@4:s 14
R164 s:17 s:97 1.176
R165 s:17 MN0@4:s 14
R166 s:17 s:196 2.184
R167 s:17 MN0@4:s 14
R168 s:17 s:15 13.104
R169 s:17 MN0@4:s 14
R170 s:15 s:93 1.176
R171 s:15 MN1@3:s 14
R172 s:15 s:195 2.184
R173 s:15 MN1@3:s 14
R174 s:15 s:13 13.104
R175 s:15 MN1@3:s 14
R176 s:13 s:89 1.176
R177 s:13 MN0@3:s 14
R178 s:13 s:194 2.184
R179 s:13 MN0@3:s 14
R180 s:13 s:11 13.104
R181 s:13 MN0@3:s 14
R182 s:11 s:85 1.176
R183 s:11 MN1@2:s 14
R184 s:11 s:193 2.184
R185 s:11 MN1@2:s 14
R186 s:11 s:9 13.104
R187 s:11 MN1@2:s 14
R188 s:9 s:81 1.176
R189 s:9 MN0@2:s 14
R190 s:9 s:192 2.184
R191 s:9 MN0@2:s 14
R192 s:9 s:7 13.104
R193 s:9 MN0@2:s 14
R194 s:7 s:77 1.176
R195 s:7 MN1@1:s 14
R196 s:7 s:191 2.184
R197 s:7 MN1@1:s 14
R198 s:7 s:5 13.104
R199 s:7 MN1@1:s 14
R200 s:5 s:73 1.176
R201 s:5 MN0@1:s 14
R202 s:5 s:190 2.184
R203 s:5 MN0@1:s 14
R204 s:5 s:3 13.104
R205 s:5 MN0@1:s 14
R206 s:3 s:69 1.176
R207 s:3 MN1@0:s 14
R208 s:3 s:189 2.184
R209 s:3 MN1@0:s 14
R210 s:3 s:1 13.104
R211 s:3 MN1@0:s 14
R212 s:1 s:65 1.176
R213 s:1 MN0@0:s 14
R214 s:1 s:188 2.184
R215 s:1 MN0@0:s 14
R216 s:1 s:184 1.008
R217 s:1 MN0@0:s 14
R218 s:188 s:64 3.36
R219 s:188 MN0@0:s 14
R220 s:189 s:68 3.36
R221 s:189 MN1@0:s 14
R222 s:190 s:72 3.36
R223 s:190 MN0@1:s 14
R224 s:191 s:76 3.36
R225 s:191 MN1@1:s 14
R226 s:192 s:80 3.36
R227 s:192 MN0@2:s 14
R228 s:193 s:84 3.36
R229 s:193 MN1@2:s 14
R230 s:194 s:88 3.36
R231 s:194 MN0@3:s 14
R232 s:195 s:92 3.36
R233 s:195 MN1@3:s 14
R234 s:196 s:96 3.36
R235 s:196 MN0@4:s 14
R236 s:197 s:100 3.36
R237 s:197 MN1@4:s 14
R238 s:198 s:104 3.36
R239 s:198 MN0@5:s 14
R240 s:199 s:108 3.36
R241 s:199 MN1@5:s 14
R242 s:200 s:112 3.36
R243 s:200 MN0@6:s 14
R244 s:201 s:116 3.36
R245 s:201 MN1@6:s 14
R246 s:202 s:120 3.36
R247 s:202 MN0@7:s 14
R248 s:60 s:187 1.008
R249 s:60 s:28 6.552
R250 s:60 s:30 6.552
R251 s:30 s:123 1.12
R252 s:30 MN1@7:b 14
R253 s:30 s:122 1.12
R254 s:30 MN1@7:b 14
R255 s:30 s:32 13.104
R256 s:30 MN1@7:b 14
R257 s:32 s:127 1.12
R258 s:32 MN0@8:b 14
R259 s:32 s:126 1.12
R260 s:32 MN0@8:b 14
R261 s:32 s:34 13.104
R262 s:32 MN0@8:b 14
R263 s:34 s:131 1.12
R264 s:34 MN1@8:b 14
R265 s:34 s:130 1.12
R266 s:34 MN1@8:b 14
R267 s:34 s:36 13.104
R268 s:34 MN1@8:b 14
R269 s:36 s:135 1.12
R270 s:36 MN0@9:b 14
R271 s:36 s:134 1.12
R272 s:36 MN0@9:b 14
R273 s:36 s:38 13.104
R274 s:36 MN0@9:b 14
R275 s:38 s:139 1.12
R276 s:38 MN1@9:b 14
R277 s:38 s:138 1.12
R278 s:38 MN1@9:b 14
R279 s:38 s:40 13.104
R280 s:38 MN1@9:b 14
R281 s:40 s:143 1.12
R282 s:40 MN0@10:b 14
R283 s:40 s:142 1.12
R284 s:40 MN0@10:b 14
R285 s:40 s:42 13.104
R286 s:40 MN0@10:b 14
R287 s:42 s:147 1.12
R288 s:42 MN1@10:b 14
R289 s:42 s:146 1.12
R290 s:42 MN1@10:b 14
R291 s:42 s:44 13.104
R292 s:42 MN1@10:b 14
R293 s:44 s:151 1.12
R294 s:44 MN0@11:b 14
R295 s:44 s:150 1.12
R296 s:44 MN0@11:b 14
R297 s:44 s:46 13.104
R298 s:44 MN0@11:b 14
R299 s:46 s:155 1.12
R300 s:46 MN1@11:b 14
R301 s:46 s:154 1.12
R302 s:46 MN1@11:b 14
R303 s:46 s:48 13.104
R304 s:46 MN1@11:b 14
R305 s:48 s:159 1.12
R306 s:48 MN0@12:b 14
R307 s:48 s:158 1.12
R308 s:48 MN0@12:b 14
R309 s:48 s:50 13.104
R310 s:48 MN0@12:b 14
R311 s:50 s:163 1.12
R312 s:50 MN1@12:b 14
R313 s:50 s:162 1.12
R314 s:50 MN1@12:b 14
R315 s:50 s:52 13.104
R316 s:50 MN1@12:b 14
R317 s:52 s:167 1.12
R318 s:52 MN0@13:b 14
R319 s:52 s:166 1.12
R320 s:52 MN0@13:b 14
R321 s:52 s:54 13.104
R322 s:52 MN0@13:b 14
R323 s:54 s:171 1.12
R324 s:54 MN1@13:b 14
R325 s:54 s:170 1.12
R326 s:54 MN1@13:b 14
R327 s:54 s:56 13.104
R328 s:54 MN1@13:b 14
R329 s:56 s:175 1.12
R330 s:56 MN0@14:b 14
R331 s:56 s:174 1.12
R332 s:56 MN0@14:b 14
R333 s:56 s:58 13.104
R334 s:56 MN0@14:b 14
R335 s:58 s:179 1.12
R336 s:58 MN1@14:b 14
R337 s:58 s:178 1.12
R338 s:58 MN1@14:b 14
R339 s:58 s:183 2.1
R340 s:58 MN1@14:b 14
R341 s:28 s:119 1.12
R342 s:28 MN0@7:b 14
R343 s:28 s:118 1.12
R344 s:28 MN0@7:b 14
R345 s:28 s:26 13.104
R346 s:28 MN0@7:b 14
R347 s:26 s:115 1.12
R348 s:26 MN1@6:b 14
R349 s:26 s:114 1.12
R350 s:26 MN1@6:b 14
R351 s:26 s:24 13.104
R352 s:26 MN1@6:b 14
R353 s:24 s:111 1.12
R354 s:24 MN0@6:b 14
R355 s:24 s:110 1.12
R356 s:24 MN0@6:b 14
R357 s:24 s:22 13.104
R358 s:24 MN0@6:b 14
R359 s:22 s:107 1.12
R360 s:22 MN1@5:b 14
R361 s:22 s:106 1.12
R362 s:22 MN1@5:b 14
R363 s:22 s:20 13.104
R364 s:22 MN1@5:b 14
R365 s:20 s:103 1.12
R366 s:20 MN0@5:b 14
R367 s:20 s:102 1.12
R368 s:20 MN0@5:b 14
R369 s:20 s:18 13.104
R370 s:20 MN0@5:b 14
R371 s:18 s:99 1.12
R372 s:18 MN1@4:b 14
R373 s:18 s:98 1.12
R374 s:18 MN1@4:b 14
R375 s:18 s:16 13.104
R376 s:18 MN1@4:b 14
R377 s:16 s:95 1.12
R378 s:16 MN0@4:b 14
R379 s:16 s:94 1.12
R380 s:16 MN0@4:b 14
R381 s:16 s:14 13.104
R382 s:16 MN0@4:b 14
R383 s:14 s:91 1.12
R384 s:14 MN1@3:b 14
R385 s:14 s:90 1.12
R386 s:14 MN1@3:b 14
R387 s:14 s:12 13.104
R388 s:14 MN1@3:b 14
R389 s:12 s:87 1.12
R390 s:12 MN0@3:b 14
R391 s:12 s:86 1.12
R392 s:12 MN0@3:b 14
R393 s:12 s:10 13.104
R394 s:12 MN0@3:b 14
R395 s:10 s:83 1.12
R396 s:10 MN1@2:b 14
R397 s:10 s:82 1.12
R398 s:10 MN1@2:b 14
R399 s:10 s:8 13.104
R400 s:10 MN1@2:b 14
R401 s:8 s:79 1.12
R402 s:8 MN0@2:b 14
R403 s:8 s:78 1.12
R404 s:8 MN0@2:b 14
R405 s:8 s:6 13.104
R406 s:8 MN0@2:b 14
R407 s:6 s:75 1.12
R408 s:6 MN1@1:b 14
R409 s:6 s:74 1.12
R410 s:6 MN1@1:b 14
R411 s:6 s:4 13.104
R412 s:6 MN1@1:b 14
R413 s:4 s:71 1.12
R414 s:4 MN0@1:b 14
R415 s:4 s:70 1.12
R416 s:4 MN0@1:b 14
R417 s:4 s:2 13.104
R418 s:4 MN0@1:b 14
R419 s:2 s:67 1.12
R420 s:2 MN1@0:b 14
R421 s:2 s:66 1.12
R422 s:2 MN1@0:b 14
R423 s:2 s:0 13.104
R424 s:2 MN1@0:b 14
R425 s:0 s:63 1.12
R426 s:0 MN0@0:b 14
R427 s:0 s:62 1.12
R428 s:0 MN0@0:b 14
R429 s:0 s:182 2.1
R430 s:0 MN0@0:b 14
R431 s:203 s:124 3.36
R432 s:203 MN1@7:s 14
R433 MN1@14:s MN2@0:s 0.01
C1 s:31 0 8.82e-15
C2 s:31 0 1.6380000000000002e-14
C3 s:31 0 4.0950000000000005e-14
C4 s:31 0 9.828e-14
C5 s:33 0 8.82e-15
C6 s:33 0 1.6380000000000002e-14
C7 s:33 0 9.828e-14
C8 s:35 0 8.82e-15
C9 s:35 0 1.6380000000000002e-14
C10 s:35 0 9.828e-14
C11 s:37 0 8.82e-15
C12 s:37 0 1.6380000000000002e-14
C13 s:37 0 9.828e-14
C14 s:39 0 8.82e-15
C15 s:39 0 1.6380000000000002e-14
C16 s:39 0 9.828e-14
C17 s:41 0 8.82e-15
C18 s:41 0 1.6380000000000002e-14
C19 s:41 0 9.828e-14
C20 s:43 0 8.82e-15
C21 s:43 0 1.6380000000000002e-14
C22 s:43 0 9.828e-14
C23 s:45 0 8.82e-15
C24 s:45 0 1.6380000000000002e-14
C25 s:45 0 9.828e-14
C26 s:47 0 8.82e-15
C27 s:47 0 1.6380000000000002e-14
C28 s:47 0 9.828e-14
C29 s:49 0 8.82e-15
C30 s:49 0 1.6380000000000002e-14
C31 s:49 0 9.828e-14
C32 s:51 0 8.82e-15
C33 s:51 0 1.6380000000000002e-14
C34 s:51 0 9.828e-14
C35 s:53 0 8.82e-15
C36 s:53 0 1.6380000000000002e-14
C37 s:53 0 9.828e-14
C38 s:55 0 8.82e-15
C39 s:55 0 1.6380000000000002e-14
C40 s:55 0 9.828e-14
C41 s:57 0 8.82e-15
C42 s:57 0 1.6380000000000002e-14
C43 s:57 0 9.828e-14
C44 s:59 0 8.82e-15
C45 s:59 0 1.6380000000000002e-14
C46 s:59 0 2.394e-14
C47 s:217 0 2.5200000000000002e-14
C48 s:216 0 2.5200000000000002e-14
C49 s:215 0 2.5200000000000002e-14
C50 s:214 0 2.5200000000000002e-14
C51 s:213 0 2.5200000000000002e-14
C52 s:212 0 2.5200000000000002e-14
C53 s:211 0 2.5200000000000002e-14
C54 s:210 0 2.5200000000000002e-14
C55 s:209 0 2.5200000000000002e-14
C56 s:208 0 2.5200000000000002e-14
C57 s:207 0 2.5200000000000002e-14
C58 s:206 0 2.5200000000000002e-14
C59 s:205 0 2.5200000000000002e-14
C60 s:204 0 2.5200000000000002e-14
C61 s:61 0 7.896e-14
C62 s:61 0 7.56e-15
C63 s:61 0 5.733000000000001e-14
C64 s:29 0 8.82e-15
C65 s:29 0 1.6380000000000002e-14
C66 s:29 0 9.828e-14
C67 s:27 0 8.82e-15
C68 s:27 0 1.6380000000000002e-14
C69 s:27 0 9.828e-14
C70 s:25 0 8.82e-15
C71 s:25 0 1.6380000000000002e-14
C72 s:25 0 9.828e-14
C73 s:23 0 8.82e-15
C74 s:23 0 1.6380000000000002e-14
C75 s:23 0 9.828e-14
C76 s:21 0 8.82e-15
C77 s:21 0 1.6380000000000002e-14
C78 s:21 0 9.828e-14
C79 s:19 0 8.82e-15
C80 s:19 0 1.6380000000000002e-14
C81 s:19 0 9.828e-14
C82 s:17 0 8.82e-15
C83 s:17 0 1.6380000000000002e-14
C84 s:17 0 9.828e-14
C85 s:15 0 8.82e-15
C86 s:15 0 1.6380000000000002e-14
C87 s:15 0 9.828e-14
C88 s:13 0 8.82e-15
C89 s:13 0 1.6380000000000002e-14
C90 s:13 0 9.828e-14
C91 s:11 0 8.82e-15
C92 s:11 0 1.6380000000000002e-14
C93 s:11 0 9.828e-14
C94 s:9 0 8.82e-15
C95 s:9 0 1.6380000000000002e-14
C96 s:9 0 9.828e-14
C97 s:7 0 8.82e-15
C98 s:7 0 1.6380000000000002e-14
C99 s:7 0 9.828e-14
C100 s:5 0 8.82e-15
C101 s:5 0 1.6380000000000002e-14
C102 s:5 0 9.828e-14
C103 s:3 0 8.82e-15
C104 s:3 0 1.6380000000000002e-14
C105 s:3 0 9.828e-14
C106 s:1 0 8.82e-15
C107 s:1 0 1.6380000000000002e-14
C108 s:1 0 7.56e-15
C109 s:188 0 2.5200000000000002e-14
C110 s:189 0 2.5200000000000002e-14
C111 s:190 0 2.5200000000000002e-14
C112 s:191 0 2.5200000000000002e-14
C113 s:192 0 2.5200000000000002e-14
C114 s:193 0 2.5200000000000002e-14
C115 s:194 0 2.5200000000000002e-14
C116 s:195 0 2.5200000000000002e-14
C117 s:196 0 2.5200000000000002e-14
C118 s:197 0 2.5200000000000002e-14
C119 s:198 0 2.5200000000000002e-14
C120 s:199 0 2.5200000000000002e-14
C121 s:200 0 2.5200000000000002e-14
C122 s:201 0 2.5200000000000002e-14
C123 s:202 0 2.5200000000000002e-14
C124 s:60 0 7.56e-15
C125 s:60 0 4.914e-14
C126 s:60 0 4.914e-14
C127 s:30 0 8.400000000000001e-15
C128 s:30 0 8.400000000000001e-15
C129 s:30 0 9.828e-14
C130 s:32 0 8.400000000000001e-15
C131 s:32 0 8.400000000000001e-15
C132 s:32 0 9.828e-14
C133 s:34 0 8.400000000000001e-15
C134 s:34 0 8.400000000000001e-15
C135 s:34 0 9.828e-14
C136 s:36 0 8.400000000000001e-15
C137 s:36 0 8.400000000000001e-15
C138 s:36 0 9.828e-14
C139 s:38 0 8.400000000000001e-15
C140 s:38 0 8.400000000000001e-15
C141 s:38 0 9.828e-14
C142 s:40 0 8.400000000000001e-15
C143 s:40 0 8.400000000000001e-15
C144 s:40 0 9.828e-14
C145 s:42 0 8.400000000000001e-15
C146 s:42 0 8.400000000000001e-15
C147 s:42 0 9.828e-14
C148 s:44 0 8.400000000000001e-15
C149 s:44 0 8.400000000000001e-15
C150 s:44 0 9.828e-14
C151 s:46 0 8.400000000000001e-15
C152 s:46 0 8.400000000000001e-15
C153 s:46 0 9.828e-14
C154 s:48 0 8.400000000000001e-15
C155 s:48 0 8.400000000000001e-15
C156 s:48 0 9.828e-14
C157 s:50 0 8.400000000000001e-15
C158 s:50 0 8.400000000000001e-15
C159 s:50 0 9.828e-14
C160 s:52 0 8.400000000000001e-15
C161 s:52 0 8.400000000000001e-15
C162 s:52 0 9.828e-14
C163 s:54 0 8.400000000000001e-15
C164 s:54 0 8.400000000000001e-15
C165 s:54 0 9.828e-14
C166 s:56 0 8.400000000000001e-15
C167 s:56 0 8.400000000000001e-15
C168 s:56 0 9.828e-14
C169 s:58 0 8.400000000000001e-15
C170 s:58 0 8.400000000000001e-15
C171 s:58 0 1.5750000000000002e-14
C172 s:28 0 8.400000000000001e-15
C173 s:28 0 8.400000000000001e-15
C174 s:28 0 9.828e-14
C175 s:26 0 8.400000000000001e-15
C176 s:26 0 8.400000000000001e-15
C177 s:26 0 9.828e-14
C178 s:24 0 8.400000000000001e-15
C179 s:24 0 8.400000000000001e-15
C180 s:24 0 9.828e-14
C181 s:22 0 8.400000000000001e-15
C182 s:22 0 8.400000000000001e-15
C183 s:22 0 9.828e-14
C184 s:20 0 8.400000000000001e-15
C185 s:20 0 8.400000000000001e-15
C186 s:20 0 9.828e-14
C187 s:18 0 8.400000000000001e-15
C188 s:18 0 8.400000000000001e-15
C189 s:18 0 9.828e-14
C190 s:16 0 8.400000000000001e-15
C191 s:16 0 8.400000000000001e-15
C192 s:16 0 9.828e-14
C193 s:14 0 8.400000000000001e-15
C194 s:14 0 8.400000000000001e-15
C195 s:14 0 9.828e-14
C196 s:12 0 8.400000000000001e-15
C197 s:12 0 8.400000000000001e-15
C198 s:12 0 9.828e-14
C199 s:10 0 8.400000000000001e-15
C200 s:10 0 8.400000000000001e-15
C201 s:10 0 9.828e-14
C202 s:8 0 8.400000000000001e-15
C203 s:8 0 8.400000000000001e-15
C204 s:8 0 9.828e-14
C205 s:6 0 8.400000000000001e-15
C206 s:6 0 8.400000000000001e-15
C207 s:6 0 9.828e-14
C208 s:4 0 8.400000000000001e-15
C209 s:4 0 8.400000000000001e-15
C210 s:4 0 9.828e-14
C211 s:2 0 8.400000000000001e-15
C212 s:2 0 8.400000000000001e-15
C213 s:2 0 9.828e-14
C214 s:0 0 8.400000000000001e-15
C215 s:0 0 8.400000000000001e-15
C216 s:0 0 1.5750000000000002e-14
C217 s:203 0 2.5200000000000002e-14


* Net:d1 ----------------


R434 d1 d1:14 5.46
R435 d1 d1:15 2.184
R436 d1:15 d1:49 1.008
R437 d1:15 d1:48 1.008
R438 d1:15 d1:3 18.564
R439 d1:3 d1:23 3.36
R440 d1:3 MN0@8:d 14
R441 d1:3 d1:22 3.36
R442 d1:3 MN0@8:d 14
R443 d1:3 d1:8 26.208
R444 d1:3 MN0@8:d 14
R445 d1:8 d1:33 3.36
R446 d1:8 MN0@9:d 14
R447 d1:8 d1:32 3.36
R448 d1:8 MN0@9:d 14
R449 d1:8 d1:12 26.208
R450 d1:8 MN0@9:d 14
R451 d1:12 d1:41 3.36
R452 d1:12 MN0@10:d 14
R453 d1:12 d1:40 3.36
R454 d1:12 MN0@10:d 14
R455 d1:12 d1:5 26.208
R456 d1:12 MN0@10:d 14
R457 d1:5 d1:27 3.36
R458 d1:5 MN0@11:d 14
R459 d1:5 d1:26 3.36
R460 d1:5 MN0@11:d 14
R461 d1:5 d1:4 26.208
R462 d1:5 MN0@11:d 14
R463 d1:4 d1:25 3.36
R464 d1:4 MN0@12:d 14
R465 d1:4 d1:24 3.36
R466 d1:4 MN0@12:d 14
R467 d1:4 d1:9 26.208
R468 d1:4 MN0@12:d 14
R469 d1:9 d1:35 3.36
R470 d1:9 MN0@13:d 14
R471 d1:9 d1:34 3.36
R472 d1:9 MN0@13:d 14
R473 d1:9 d1:13 26.208
R474 d1:9 MN0@13:d 14
R475 d1:13 d1:43 3.36
R476 d1:13 MN0@14:d 14
R477 d1:13 d1:42 3.36
R478 d1:13 MN0@14:d 14
R479 d1:13 d1:47 14.112
R480 d1:13 MN0@14:d 14
R481 d1:14 d1:45 3.36
R482 d1:14 MN0@7:d 14
R483 d1:14 d1:44 3.36
R484 d1:14 MN0@7:d 14
R485 d1:14 d1:11 26.208
R486 d1:14 MN0@7:d 14
R487 d1:11 d1:39 3.36
R488 d1:11 MN0@6:d 14
R489 d1:11 d1:38 3.36
R490 d1:11 MN0@6:d 14
R491 d1:11 d1:6 26.208
R492 d1:11 MN0@6:d 14
R493 d1:6 d1:29 3.36
R494 d1:6 MN0@5:d 14
R495 d1:6 d1:28 3.36
R496 d1:6 MN0@5:d 14
R497 d1:6 d1:1 26.208
R498 d1:6 MN0@5:d 14
R499 d1:1 d1:19 3.36
R500 d1:1 MN0@4:d 14
R501 d1:1 d1:18 3.36
R502 d1:1 MN0@4:d 14
R503 d1:1 d1:2 26.208
R504 d1:1 MN0@4:d 14
R505 d1:2 d1:21 3.36
R506 d1:2 MN0@3:d 14
R507 d1:2 d1:20 3.36
R508 d1:2 MN0@3:d 14
R509 d1:2 d1:10 26.208
R510 d1:2 MN0@3:d 14
R511 d1:10 d1:37 3.36
R512 d1:10 MN0@2:d 14
R513 d1:10 d1:36 3.36
R514 d1:10 MN0@2:d 14
R515 d1:10 d1:7 26.208
R516 d1:10 MN0@2:d 14
R517 d1:7 d1:31 3.36
R518 d1:7 MN0@1:d 14
R519 d1:7 d1:30 3.36
R520 d1:7 MN0@1:d 14
R521 d1:7 d1:0 26.208
R522 d1:7 MN0@1:d 14
R523 d1:0 d1:17 3.36
R524 d1:0 MN0@0:d 14
R525 d1:0 d1:16 3.36
R526 d1:0 MN0@0:d 14
R527 d1:0 d1:46 3.192
R528 d1:0 MN0@0:d 14
C218 d1:15 0 7.56e-15
C219 d1:15 0 7.56e-15
C220 d1:15 0 1.3922999999999983e-13
C221 d1:3 0 2.5200000000000002e-14
C222 d1:3 0 2.5200000000000002e-14
C223 d1:3 0 1.9656e-13
C224 d1:8 0 2.5200000000000002e-14
C225 d1:8 0 2.5200000000000002e-14
C226 d1:8 0 1.9656e-13
C227 d1:12 0 2.5200000000000002e-14
C228 d1:12 0 2.5200000000000002e-14
C229 d1:12 0 1.9656e-13
C230 d1:5 0 2.5200000000000002e-14
C231 d1:5 0 2.5200000000000002e-14
C232 d1:5 0 1.9656e-13
C233 d1:4 0 2.5200000000000002e-14
C234 d1:4 0 2.5200000000000002e-14
C235 d1:4 0 1.9656e-13
C236 d1:9 0 2.5200000000000002e-14
C237 d1:9 0 2.5200000000000002e-14
C238 d1:9 0 1.9656e-13
C239 d1:13 0 2.5200000000000002e-14
C240 d1:13 0 2.5200000000000002e-14
C241 d1:13 0 1.0584000000000001e-13
C242 d1:14 0 2.5200000000000002e-14
C243 d1:14 0 2.5200000000000002e-14
C244 d1:14 0 1.9656e-13
C245 d1:11 0 2.5200000000000002e-14
C246 d1:11 0 2.5200000000000002e-14
C247 d1:11 0 1.9656e-13
C248 d1:6 0 2.5200000000000002e-14
C249 d1:6 0 2.5200000000000002e-14
C250 d1:6 0 1.9656e-13
C251 d1:1 0 2.5200000000000002e-14
C252 d1:1 0 2.5200000000000002e-14
C253 d1:1 0 1.9656e-13
C254 d1:2 0 2.5200000000000002e-14
C255 d1:2 0 2.5200000000000002e-14
C256 d1:2 0 1.9656e-13
C257 d1:10 0 2.5200000000000002e-14
C258 d1:10 0 2.5200000000000002e-14
C259 d1:10 0 1.9656e-13
C260 d1:7 0 2.5200000000000002e-14
C261 d1:7 0 2.5200000000000002e-14
C262 d1:7 0 1.9656e-13
C263 d1:0 0 2.5200000000000002e-14
C264 d1:0 0 2.5200000000000002e-14
C265 d1:0 0 2.394e-14


* Net:d0 ----------------


R529 d0 d0:46 2.184
R530 d0 d0:22 7.644
R531 d0:22 d0:150 2.184
R532 d0:22 MN1@7:d 14
R533 d0:22 d0:91 1.176
R534 d0:22 MN1@7:d 14
R535 d0:22 d0:25 26.208
R536 d0:22 MN1@7:d 14
R537 d0:25 d0:151 2.184
R538 d0:25 MN1@8:d 14
R539 d0:25 d0:97 1.176
R540 d0:25 MN1@8:d 14
R541 d0:25 d0:28 26.208
R542 d0:25 MN1@8:d 14
R543 d0:28 d0:152 2.184
R544 d0:28 MN1@9:d 14
R545 d0:28 d0:103 1.176
R546 d0:28 MN1@9:d 14
R547 d0:28 d0:31 26.208
R548 d0:28 MN1@9:d 14
R549 d0:31 d0:153 2.184
R550 d0:31 MN1@10:d 14
R551 d0:31 d0:109 1.176
R552 d0:31 MN1@10:d 14
R553 d0:31 d0:34 26.208
R554 d0:31 MN1@10:d 14
R555 d0:34 d0:154 2.184
R556 d0:34 MN1@11:d 14
R557 d0:34 d0:115 1.176
R558 d0:34 MN1@11:d 14
R559 d0:34 d0:37 26.208
R560 d0:34 MN1@11:d 14
R561 d0:37 d0:155 2.184
R562 d0:37 MN1@12:d 14
R563 d0:37 d0:121 1.176
R564 d0:37 MN1@12:d 14
R565 d0:37 d0:40 26.208
R566 d0:37 MN1@12:d 14
R567 d0:40 d0:156 2.184
R568 d0:40 MN1@13:d 14
R569 d0:40 d0:127 1.176
R570 d0:40 MN1@13:d 14
R571 d0:40 d0:43 26.208
R572 d0:40 MN1@13:d 14
R573 d0:43 d0:157 2.184
R574 d0:43 MN1@14:d 14
R575 d0:43 d0:133 1.176
R576 d0:43 MN1@14:d 14
R577 d0:43 d0:140 1.008
R578 d0:43 MN1@14:d 14
R579 d0:157 d0:134 3.36
R580 d0:157 MN1@14:d 14
R581 d0:156 d0:128 3.36
R582 d0:156 MN1@13:d 14
R583 d0:155 d0:122 3.36
R584 d0:155 MN1@12:d 14
R585 d0:154 d0:116 3.36
R586 d0:154 MN1@11:d 14
R587 d0:153 d0:110 3.36
R588 d0:153 MN1@10:d 14
R589 d0:152 d0:104 3.36
R590 d0:152 MN1@9:d 14
R591 d0:151 d0:98 3.36
R592 d0:151 MN1@8:d 14
R593 d0:150 d0:92 3.36
R594 d0:150 MN1@7:d 14
R595 d0:46 d0:45 8.232
R596 d0:46 d0:141 1.008
R597 d0:46 d0:19 16.38
R598 d0:19 d0:149 2.184
R599 d0:19 MN1@6:d 14
R600 d0:19 d0:85 1.176
R601 d0:19 MN1@6:d 14
R602 d0:19 d0:16 26.208
R603 d0:19 MN1@6:d 14
R604 d0:16 d0:148 2.184
R605 d0:16 MN1@5:d 14
R606 d0:16 d0:79 1.176
R607 d0:16 MN1@5:d 14
R608 d0:16 d0:13 26.208
R609 d0:16 MN1@5:d 14
R610 d0:13 d0:147 2.184
R611 d0:13 MN1@4:d 14
R612 d0:13 d0:73 1.176
R613 d0:13 MN1@4:d 14
R614 d0:13 d0:10 26.208
R615 d0:13 MN1@4:d 14
R616 d0:10 d0:146 2.184
R617 d0:10 MN1@3:d 14
R618 d0:10 d0:67 1.176
R619 d0:10 MN1@3:d 14
R620 d0:10 d0:7 26.208
R621 d0:10 MN1@3:d 14
R622 d0:7 d0:145 2.184
R623 d0:7 MN1@2:d 14
R624 d0:7 d0:61 1.176
R625 d0:7 MN1@2:d 14
R626 d0:7 d0:4 26.208
R627 d0:7 MN1@2:d 14
R628 d0:4 d0:144 2.184
R629 d0:4 MN1@1:d 14
R630 d0:4 d0:55 1.176
R631 d0:4 MN1@1:d 14
R632 d0:4 d0:1 26.208
R633 d0:4 MN1@1:d 14
R634 d0:1 d0:143 2.184
R635 d0:1 MN1@0:d 14
R636 d0:1 d0:49 1.176
R637 d0:1 MN1@0:d 14
R638 d0:1 d0:139 16.296
R639 d0:1 MN1@0:d 14
R640 d0:143 d0:50 3.36
R641 d0:143 MN1@0:d 14
R642 d0:144 d0:56 3.36
R643 d0:144 MN1@1:d 14
R644 d0:145 d0:62 3.36
R645 d0:145 MN1@2:d 14
R646 d0:146 d0:68 3.36
R647 d0:146 MN1@3:d 14
R648 d0:147 d0:74 3.36
R649 d0:147 MN1@4:d 14
R650 d0:148 d0:80 3.36
R651 d0:148 MN1@5:d 14
R652 d0:149 d0:86 3.36
R653 d0:149 MN1@6:d 14
R654 d0:45 d0:142 1.008
R655 d0:45 d0:21 4.368
R656 d0:45 d0:23 8.736
R657 d0:23 d0:94 1.092
R658 d0:23 MN0@0:g 342
R659 d0:23 MN1@0:g 342
R660 d0:23 MN0@1:g 342
R661 d0:23 MN1@1:g 342
R662 d0:23 MN0@2:g 342
R663 d0:23 MN1@2:g 342
R664 d0:23 MN0@3:g 342
R665 d0:23 MN1@3:g 342
R666 d0:23 MN0@4:g 342
R667 d0:23 MN1@4:g 342
R668 d0:23 MN0@5:g 342
R669 d0:23 MN1@5:g 342
R670 d0:23 MN0@6:g 342
R671 d0:23 MN1@6:g 342
R672 d0:23 MN0@7:g 342
R673 d0:23 MN1@7:g 342
R674 d0:23 MN0@8:g 342
R675 d0:23 MN1@8:g 342
R676 d0:23 MN0@9:g 342
R677 d0:23 MN1@9:g 342
R678 d0:23 MN0@10:g 342
R679 d0:23 MN1@10:g 342
R680 d0:23 MN0@11:g 342
R681 d0:23 MN1@11:g 342
R682 d0:23 MN0@12:g 342
R683 d0:23 MN1@12:g 342
R684 d0:23 MN0@13:g 342
R685 d0:23 MN1@13:g 342
R686 d0:23 MN0@14:g 342
R687 d0:23 MN1@14:g 342
R688 d0:23 d0:93 1.148
R689 d0:23 MN0@0:g 342
R690 d0:23 MN1@0:g 342
R691 d0:23 MN0@1:g 342
R692 d0:23 MN1@1:g 342
R693 d0:23 MN0@2:g 342
R694 d0:23 MN1@2:g 342
R695 d0:23 MN0@3:g 342
R696 d0:23 MN1@3:g 342
R697 d0:23 MN0@4:g 342
R698 d0:23 MN1@4:g 342
R699 d0:23 MN0@5:g 342
R700 d0:23 MN1@5:g 342
R701 d0:23 MN0@6:g 342
R702 d0:23 MN1@6:g 342
R703 d0:23 MN0@7:g 342
R704 d0:23 MN1@7:g 342
R705 d0:23 MN0@8:g 342
R706 d0:23 MN1@8:g 342
R707 d0:23 MN0@9:g 342
R708 d0:23 MN1@9:g 342
R709 d0:23 MN0@10:g 342
R710 d0:23 MN1@10:g 342
R711 d0:23 MN0@11:g 342
R712 d0:23 MN1@11:g 342
R713 d0:23 MN0@12:g 342
R714 d0:23 MN1@12:g 342
R715 d0:23 MN0@13:g 342
R716 d0:23 MN1@13:g 342
R717 d0:23 MN0@14:g 342
R718 d0:23 MN1@14:g 342
R719 d0:23 d0:24 13.104
R720 d0:23 MN0@0:g 342
R721 d0:23 MN1@0:g 342
R722 d0:23 MN0@1:g 342
R723 d0:23 MN1@1:g 342
R724 d0:23 MN0@2:g 342
R725 d0:23 MN1@2:g 342
R726 d0:23 MN0@3:g 342
R727 d0:23 MN1@3:g 342
R728 d0:23 MN0@4:g 342
R729 d0:23 MN1@4:g 342
R730 d0:23 MN0@5:g 342
R731 d0:23 MN1@5:g 342
R732 d0:23 MN0@6:g 342
R733 d0:23 MN1@6:g 342
R734 d0:23 MN0@7:g 342
R735 d0:23 MN1@7:g 342
R736 d0:23 MN0@8:g 342
R737 d0:23 MN1@8:g 342
R738 d0:23 MN0@9:g 342
R739 d0:23 MN1@9:g 342
R740 d0:23 MN0@10:g 342
R741 d0:23 MN1@10:g 342
R742 d0:23 MN0@11:g 342
R743 d0:23 MN1@11:g 342
R744 d0:23 MN0@12:g 342
R745 d0:23 MN1@12:g 342
R746 d0:23 MN0@13:g 342
R747 d0:23 MN1@13:g 342
R748 d0:23 MN0@14:g 342
R749 d0:23 MN1@14:g 342
R750 d0:24 d0:96 1.092
R751 d0:24 MN0@0:g 342
R752 d0:24 MN1@0:g 342
R753 d0:24 MN0@1:g 342
R754 d0:24 MN1@1:g 342
R755 d0:24 MN0@2:g 342
R756 d0:24 MN1@2:g 342
R757 d0:24 MN0@3:g 342
R758 d0:24 MN1@3:g 342
R759 d0:24 MN0@4:g 342
R760 d0:24 MN1@4:g 342
R761 d0:24 MN0@5:g 342
R762 d0:24 MN1@5:g 342
R763 d0:24 MN0@6:g 342
R764 d0:24 MN1@6:g 342
R765 d0:24 MN0@7:g 342
R766 d0:24 MN1@7:g 342
R767 d0:24 MN0@8:g 342
R768 d0:24 MN1@8:g 342
R769 d0:24 MN0@9:g 342
R770 d0:24 MN1@9:g 342
R771 d0:24 MN0@10:g 342
R772 d0:24 MN1@10:g 342
R773 d0:24 MN0@11:g 342
R774 d0:24 MN1@11:g 342
R775 d0:24 MN0@12:g 342
R776 d0:24 MN1@12:g 342
R777 d0:24 MN0@13:g 342
R778 d0:24 MN1@13:g 342
R779 d0:24 MN0@14:g 342
R780 d0:24 MN1@14:g 342
R781 d0:24 d0:95 1.148
R782 d0:24 MN0@0:g 342
R783 d0:24 MN1@0:g 342
R784 d0:24 MN0@1:g 342
R785 d0:24 MN1@1:g 342
R786 d0:24 MN0@2:g 342
R787 d0:24 MN1@2:g 342
R788 d0:24 MN0@3:g 342
R789 d0:24 MN1@3:g 342
R790 d0:24 MN0@4:g 342
R791 d0:24 MN1@4:g 342
R792 d0:24 MN0@5:g 342
R793 d0:24 MN1@5:g 342
R794 d0:24 MN0@6:g 342
R795 d0:24 MN1@6:g 342
R796 d0:24 MN0@7:g 342
R797 d0:24 MN1@7:g 342
R798 d0:24 MN0@8:g 342
R799 d0:24 MN1@8:g 342
R800 d0:24 MN0@9:g 342
R801 d0:24 MN1@9:g 342
R802 d0:24 MN0@10:g 342
R803 d0:24 MN1@10:g 342
R804 d0:24 MN0@11:g 342
R805 d0:24 MN1@11:g 342
R806 d0:24 MN0@12:g 342
R807 d0:24 MN1@12:g 342
R808 d0:24 MN0@13:g 342
R809 d0:24 MN1@13:g 342
R810 d0:24 MN0@14:g 342
R811 d0:24 MN1@14:g 342
R812 d0:24 d0:26 13.104
R813 d0:24 MN0@0:g 342
R814 d0:24 MN1@0:g 342
R815 d0:24 MN0@1:g 342
R816 d0:24 MN1@1:g 342
R817 d0:24 MN0@2:g 342
R818 d0:24 MN1@2:g 342
R819 d0:24 MN0@3:g 342
R820 d0:24 MN1@3:g 342
R821 d0:24 MN0@4:g 342
R822 d0:24 MN1@4:g 342
R823 d0:24 MN0@5:g 342
R824 d0:24 MN1@5:g 342
R825 d0:24 MN0@6:g 342
R826 d0:24 MN1@6:g 342
R827 d0:24 MN0@7:g 342
R828 d0:24 MN1@7:g 342
R829 d0:24 MN0@8:g 342
R830 d0:24 MN1@8:g 342
R831 d0:24 MN0@9:g 342
R832 d0:24 MN1@9:g 342
R833 d0:24 MN0@10:g 342
R834 d0:24 MN1@10:g 342
R835 d0:24 MN0@11:g 342
R836 d0:24 MN1@11:g 342
R837 d0:24 MN0@12:g 342
R838 d0:24 MN1@12:g 342
R839 d0:24 MN0@13:g 342
R840 d0:24 MN1@13:g 342
R841 d0:24 MN0@14:g 342
R842 d0:24 MN1@14:g 342
R843 d0:26 d0:100 1.092
R844 d0:26 MN0@0:g 342
R845 d0:26 MN1@0:g 342
R846 d0:26 MN0@1:g 342
R847 d0:26 MN1@1:g 342
R848 d0:26 MN0@2:g 342
R849 d0:26 MN1@2:g 342
R850 d0:26 MN0@3:g 342
R851 d0:26 MN1@3:g 342
R852 d0:26 MN0@4:g 342
R853 d0:26 MN1@4:g 342
R854 d0:26 MN0@5:g 342
R855 d0:26 MN1@5:g 342
R856 d0:26 MN0@6:g 342
R857 d0:26 MN1@6:g 342
R858 d0:26 MN0@7:g 342
R859 d0:26 MN1@7:g 342
R860 d0:26 MN0@8:g 342
R861 d0:26 MN1@8:g 342
R862 d0:26 MN0@9:g 342
R863 d0:26 MN1@9:g 342
R864 d0:26 MN0@10:g 342
R865 d0:26 MN1@10:g 342
R866 d0:26 MN0@11:g 342
R867 d0:26 MN1@11:g 342
R868 d0:26 MN0@12:g 342
R869 d0:26 MN1@12:g 342
R870 d0:26 MN0@13:g 342
R871 d0:26 MN1@13:g 342
R872 d0:26 MN0@14:g 342
R873 d0:26 MN1@14:g 342
R874 d0:26 d0:99 1.148
R875 d0:26 MN0@0:g 342
R876 d0:26 MN1@0:g 342
R877 d0:26 MN0@1:g 342
R878 d0:26 MN1@1:g 342
R879 d0:26 MN0@2:g 342
R880 d0:26 MN1@2:g 342
R881 d0:26 MN0@3:g 342
R882 d0:26 MN1@3:g 342
R883 d0:26 MN0@4:g 342
R884 d0:26 MN1@4:g 342
R885 d0:26 MN0@5:g 342
R886 d0:26 MN1@5:g 342
R887 d0:26 MN0@6:g 342
R888 d0:26 MN1@6:g 342
R889 d0:26 MN0@7:g 342
R890 d0:26 MN1@7:g 342
R891 d0:26 MN0@8:g 342
R892 d0:26 MN1@8:g 342
R893 d0:26 MN0@9:g 342
R894 d0:26 MN1@9:g 342
R895 d0:26 MN0@10:g 342
R896 d0:26 MN1@10:g 342
R897 d0:26 MN0@11:g 342
R898 d0:26 MN1@11:g 342
R899 d0:26 MN0@12:g 342
R900 d0:26 MN1@12:g 342
R901 d0:26 MN0@13:g 342
R902 d0:26 MN1@13:g 342
R903 d0:26 MN0@14:g 342
R904 d0:26 MN1@14:g 342
R905 d0:26 d0:27 13.104
R906 d0:26 MN0@0:g 342
R907 d0:26 MN1@0:g 342
R908 d0:26 MN0@1:g 342
R909 d0:26 MN1@1:g 342
R910 d0:26 MN0@2:g 342
R911 d0:26 MN1@2:g 342
R912 d0:26 MN0@3:g 342
R913 d0:26 MN1@3:g 342
R914 d0:26 MN0@4:g 342
R915 d0:26 MN1@4:g 342
R916 d0:26 MN0@5:g 342
R917 d0:26 MN1@5:g 342
R918 d0:26 MN0@6:g 342
R919 d0:26 MN1@6:g 342
R920 d0:26 MN0@7:g 342
R921 d0:26 MN1@7:g 342
R922 d0:26 MN0@8:g 342
R923 d0:26 MN1@8:g 342
R924 d0:26 MN0@9:g 342
R925 d0:26 MN1@9:g 342
R926 d0:26 MN0@10:g 342
R927 d0:26 MN1@10:g 342
R928 d0:26 MN0@11:g 342
R929 d0:26 MN1@11:g 342
R930 d0:26 MN0@12:g 342
R931 d0:26 MN1@12:g 342
R932 d0:26 MN0@13:g 342
R933 d0:26 MN1@13:g 342
R934 d0:26 MN0@14:g 342
R935 d0:26 MN1@14:g 342
R936 d0:27 d0:102 1.092
R937 d0:27 MN0@0:g 342
R938 d0:27 MN1@0:g 342
R939 d0:27 MN0@1:g 342
R940 d0:27 MN1@1:g 342
R941 d0:27 MN0@2:g 342
R942 d0:27 MN1@2:g 342
R943 d0:27 MN0@3:g 342
R944 d0:27 MN1@3:g 342
R945 d0:27 MN0@4:g 342
R946 d0:27 MN1@4:g 342
R947 d0:27 MN0@5:g 342
R948 d0:27 MN1@5:g 342
R949 d0:27 MN0@6:g 342
R950 d0:27 MN1@6:g 342
R951 d0:27 MN0@7:g 342
R952 d0:27 MN1@7:g 342
R953 d0:27 MN0@8:g 342
R954 d0:27 MN1@8:g 342
R955 d0:27 MN0@9:g 342
R956 d0:27 MN1@9:g 342
R957 d0:27 MN0@10:g 342
R958 d0:27 MN1@10:g 342
R959 d0:27 MN0@11:g 342
R960 d0:27 MN1@11:g 342
R961 d0:27 MN0@12:g 342
R962 d0:27 MN1@12:g 342
R963 d0:27 MN0@13:g 342
R964 d0:27 MN1@13:g 342
R965 d0:27 MN0@14:g 342
R966 d0:27 MN1@14:g 342
R967 d0:27 d0:101 1.148
R968 d0:27 MN0@0:g 342
R969 d0:27 MN1@0:g 342
R970 d0:27 MN0@1:g 342
R971 d0:27 MN1@1:g 342
R972 d0:27 MN0@2:g 342
R973 d0:27 MN1@2:g 342
R974 d0:27 MN0@3:g 342
R975 d0:27 MN1@3:g 342
R976 d0:27 MN0@4:g 342
R977 d0:27 MN1@4:g 342
R978 d0:27 MN0@5:g 342
R979 d0:27 MN1@5:g 342
R980 d0:27 MN0@6:g 342