*|DSPF	1.5
*|DESIGN	nmos_cm_15x5x1_222_3
*|DATE	"Wed Jun 19 2025"
*|VENDOR	"Mentor Graphics Corporation"
*|PROGRAM	"Calibre xACT"
*|VERSION	"v2020.4_34.17"
*|DIVIDER	|
*|DELIMITER	:
*|BUSBIT	[]
* Corner Name: 12lp_11M_3Mx_4Cx_2Kx_2Gx_LB_nominal_detailed_25
* Nominal Temperature: 25C
* Circuit Temperature: 25C
*

* Integrated TICER reduction is not enabled.
* SHORT DELAY THRESHOLD: 2e-14
* Fill Mode: NG
* PEX REDUCE CC ABSOLUTE : disabled
* PEX REDUCE CC RATIO : disabled
* Delta transform mode : 344834

.subckt nmos_cm_15x5x1_222_3 d0 d1 s

* Net:s ----------------


R1 s s:34 1.092
R2 s s:35 1.092
R3 s:35 s:33 2.184
R4 s:35 s:84 1.008
R5 s:35 s:17 4.368
R6 s:17 s:16 2.184
R7 s:17 MN1@2:s 14
R8 s:17 s:108 3.276
R9 s:17 MN1@2:s 14
R10 s:17 s:20 13.104
R11 s:17 MN1@2:s 14
R12 s:20 s:19 2.184
R13 s:20 MN0@3:s 14
R14 s:20 s:112 3.276
R15 s:20 MN0@3:s 14
R16 s:20 s:23 13.104
R17 s:20 MN0@3:s 14
R18 s:23 s:22 2.184
R19 s:23 MN1@3:s 14
R20 s:23 s:116 3.276
R21 s:23 MN1@3:s 14
R22 s:23 s:26 13.104
R23 s:23 MN1@3:s 14
R24 s:26 s:25 2.184
R25 s:26 MN0@4:s 14
R26 s:26 s:120 3.276
R27 s:26 MN0@4:s 14
R28 s:26 s:29 13.104
R29 s:26 MN0@4:s 14
R30 s:29 s:28 2.184
R31 s:29 MN1@4:s 14
R32 s:29 s:124 3.276
R33 s:29 MN1@4:s 14
R34 s:29 s:81 3.192
R35 s:29 MN1@4:s 14
R36 s:124 s:123 3.528
R37 s:124 MN1@4:s 14
R38 s:123 s:122 3.528
R39 s:123 MN1@4:s 14
R40 s:122 s:74 3.024
R41 s:122 MN1@4:s 14
R42 s:28 s:125 1.596
R43 s:28 MN1@4:s 14
R44 s:28 s:25 13.104
R45 s:28 MN1@4:s 14
R46 s:28 s:79 3.192
R47 s:28 MN1@4:s 14
R48 s:25 s:121 1.596
R49 s:25 MN0@4:s 14
R50 s:25 s:22 13.104
R51 s:25 MN0@4:s 14
R52 s:22 s:117 1.596
R53 s:22 MN1@3:s 14
R54 s:22 s:19 13.104
R55 s:22 MN1@3:s 14
R56 s:19 s:113 1.596
R57 s:19 MN0@3:s 14
R58 s:19 s:16 13.104
R59 s:19 MN0@3:s 14
R60 s:16 s:109 1.596
R61 s:16 MN1@2:s 14
R62 s:16 s:33 4.368
R63 s:16 MN1@2:s 14
R64 s:33 s:31 13.972
R65 s:33 s:32 2.184
R66 s:32 s:30 13.972
R67 s:32 s:34 2.184
R68 s:32 s:13 6.552
R69 s:13 s:105 1.596
R70 s:13 MN0@2:s 14
R71 s:13 s:14 2.184
R72 s:13 MN0@2:s 14
R73 s:13 s:10 13.104
R74 s:13 MN0@2:s 14
R75 s:10 s:101 1.596
R76 s:10 MN1@1:s 14
R77 s:10 s:11 2.184
R78 s:10 MN1@1:s 14
R79 s:10 s:7 13.104
R80 s:10 MN1@1:s 14
R81 s:7 s:97 1.596
R82 s:7 MN0@1:s 14
R83 s:7 s:8 2.184
R84 s:7 MN0@1:s 14
R85 s:7 s:4 13.104
R86 s:7 MN0@1:s 14
R87 s:4 s:93 1.596
R88 s:4 MN1@0:s 14
R89 s:4 s:5 2.184
R90 s:4 MN1@0:s 14
R91 s:4 s:1 13.104
R92 s:4 MN1@0:s 14
R93 s:1 s:89 1.596
R94 s:1 MN0@0:s 14
R95 s:1 s:2 2.184
R96 s:1 MN0@0:s 14
R97 s:1 s:78 1.008
R98 s:1 MN0@0:s 14
R99 s:2 s:88 3.276
R100 s:2 MN0@0:s 14
R101 s:2 s:80 1.008
R102 s:2 MN0@0:s 14
R103 s:2 s:5 13.104
R104 s:2 MN0@0:s 14
R105 s:5 s:92 3.276
R106 s:5 MN1@0:s 14
R107 s:5 s:8 13.104
R108 s:5 MN1@0:s 14
R109 s:8 s:96 3.276
R110 s:8 MN0@1:s 14
R111 s:8 s:11 13.104
R112 s:8 MN0@1:s 14
R113 s:11 s:100 3.276
R114 s:11 MN1@1:s 14
R115 s:11 s:14 13.104
R116 s:11 MN1@1:s 14
R117 s:14 s:104 3.276
R118 s:14 MN0@2:s 14
R119 s:14 s:34 6.552
R120 s:14 MN0@2:s 14
R121 s:34 s:82 1.008
R122 s:104 s:103 3.528
R123 s:104 MN0@2:s 14
R124 s:103 s:102 3.528
R125 s:103 MN0@2:s 14
R126 s:102 s:54 3.024
R127 s:102 MN0@2:s 14
R128 s:100 s:99 3.528
R129 s:100 MN1@1:s 14
R130 s:99 s:98 3.528
R131 s:99 MN1@1:s 14
R132 s:98 s:50 3.024
R133 s:98 MN1@1:s 14
R134 s:96 s:95 3.528
R135 s:96 MN0@1:s 14
R136 s:95 s:94 3.528
R137 s:95 MN0@1:s 14
R138 s:94 s:46 3.024
R139 s:94 MN0@1:s 14
R140 s:92 s:91 3.528
R141 s:92 MN1@0:s 14
R142 s:91 s:90 3.528
R143 s:91 MN1@0:s 14
R144 s:90 s:42 3.024
R145 s:90 MN1@0:s 14
R146 s:88 s:87 3.528
R147 s:88 MN0@0:s 14
R148 s:87 s:86 3.528
R149 s:87 MN0@0:s 14
R150 s:86 s:38 3.024
R151 s:86 MN0@0:s 14
R152 s:89 s:39 3.024
R153 s:89 MN0@0:s 14
R154 s:93 s:43 3.024
R155 s:93 MN1@0:s 14
R156 s:97 s:47 3.024
R157 s:97 MN0@1:s 14
R158 s:101 s:51 3.024
R159 s:101 MN1@1:s 14
R160 s:105 s:55 3.024
R161 s:105 MN0@2:s 14
R162 s:30 s:83 1.008
R163 s:30 s:12 5.46
R164 s:30 s:31 2.184
R165 s:31 s:85 1.008
R166 s:31 s:15 5.46
R167 s:15 s:57 1.12
R168 s:15 MN1@2:b 14
R169 s:15 s:56 1.12
R170 s:15 MN1@2:b 14
R171 s:15 s:18 13.104
R172 s:15 MN1@2:b 14
R173 s:18 s:61 1.12
R174 s:18 MN0@3:b 14
R175 s:18 s:60 1.12
R176 s:18 MN0@3:b 14
R177 s:18 s:21 13.104
R178 s:18 MN0@3:b 14
R179 s:21 s:65 1.12
R180 s:21 MN1@3:b 14
R181 s:21 s:64 1.12
R182 s:21 MN1@3:b 14
R183 s:21 s:24 13.104
R184 s:21 MN1@3:b 14
R185 s:24 s:69 1.12
R186 s:24 MN0@4:b 14
R187 s:24 s:68 1.12
R188 s:24 MN0@4:b 14
R189 s:24 s:27 13.104
R190 s:24 MN0@4:b 14
R191 s:27 s:73 1.12
R192 s:27 MN1@4:b 14
R193 s:27 s:72 1.12
R194 s:27 MN1@4:b 14
R195 s:27 s:77 2.1
R196 s:27 MN1@4:b 14
R197 s:12 s:53 1.12
R198 s:12 MN0@2:b 14
R199 s:12 s:52 1.12
R200 s:12 MN0@2:b 14
R201 s:12 s:9 13.104
R202 s:12 MN0@2:b 14
R203 s:9 s:49 1.12
R204 s:9 MN1@1:b 14
R205 s:9 s:48 1.12
R206 s:9 MN1@1:b 14
R207 s:9 s:6 13.104
R208 s:9 MN1@1:b 14
R209 s:6 s:45 1.12
R210 s:6 MN0@1:b 14
R211 s:6 s:44 1.12
R212 s:6 MN0@1:b 14
R213 s:6 s:3 13.104
R214 s:6 MN0@1:b 14
R215 s:3 s:41 1.12
R216 s:3 MN1@0:b 14
R217 s:3 s:40 1.12
R218 s:3 MN1@0:b 14
R219 s:3 s:0 13.104
R220 s:3 MN1@0:b 14
R221 s:0 s:37 1.12
R222 s:0 MN0@0:b 14
R223 s:0 s:36 1.12
R224 s:0 MN0@0:b 14
R225 s:0 s:76 2.1
R226 s:0 MN0@0:b 14
R227 s:109 s:59 3.024
R228 s:109 MN1@2:s 14
R229 s:113 s:63 3.024
R230 s:113 MN0@3:s 14
R231 s:117 s:67 3.024
R232 s:117 MN1@3:s 14
R233 s:121 s:71 3.024
R234 s:121 MN0@4:s 14
R235 s:125 s:75 3.024
R236 s:125 MN1@4:s 14
R237 s:120 s:119 3.528
R238 s:120 MN0@4:s 14
R239 s:119 s:118 3.528
R240 s:119 MN0@4:s 14
R241 s:118 s:70 3.024
R242 s:118 MN0@4:s 14
R243 s:116 s:115 3.528
R244 s:116 MN1@3:s 14
R245 s:115 s:114 3.528
R246 s:115 MN1@3:s 14
R247 s:114 s:66 3.024
R248 s:114 MN1@3:s 14
R249 s:112 s:111 3.528
R250 s:112 MN0@3:s 14
R251 s:111 s:110 3.528
R252 s:111 MN0@3:s 14
R253 s:110 s:62 3.024
R254 s:110 MN0@3:s 14
R255 s:108 s:107 3.528
R256 s:108 MN1@2:s 14
R257 s:107 s:106 3.528
R258 s:107 MN1@2:s 14
R259 s:106 s:58 3.024
R260 s:106 MN1@2:s 14
R261 MN1@4:s MN2@0:s 0.01
C1 s:35 0 1.6380000000000002e-14
C2 s:35 0 7.56e-15
C3 s:35 0 3.2760000000000004e-14
C4 s:17 0 1.6380000000000002e-14
C5 s:17 0 2.457e-14
C6 s:17 0 9.828e-14
C7 s:20 0 1.6380000000000002e-14
C8 s:20 0 2.457e-14
C9 s:20 0 9.828e-14
C10 s:23 0 1.6380000000000002e-14
C11 s:23 0 2.457e-14
C12 s:23 0 9.828e-14
C13 s:26 0 1.6380000000000002e-14
C14 s:26 0 2.457e-14
C15 s:26 0 9.828e-14
C16 s:29 0 1.6380000000000002e-14
C17 s:29 0 2.457e-14
C18 s:29 0 2.394e-14
C19 s:124 0 2.6460000000000002e-14
C20 s:123 0 2.6460000000000002e-14
C21 s:122 0 2.268e-14
C22 s:28 0 1.197e-14
C23 s:28 0 9.828e-14
C24 s:28 0 2.394e-14
C25 s:25 0 1.197e-14
C26 s:25 0 9.828e-14
C27 s:22 0 1.197e-14
C28 s:22 0 9.828e-14
C29 s:19 0 1.197e-14
C30 s:19 0 9.828e-14
C31 s:16 0 1.197e-14
C32 s:16 0 3.2760000000000004e-14
C33 s:33 0 1.0479e-13
C34 s:33 0 1.6380000000000002e-14
C35 s:32 0 1.0479e-13
C36 s:32 0 1.6380000000000002e-14
C37 s:32 0 4.914e-14
C38 s:13 0 1.197e-14
C39 s:13 0 1.6380000000000002e-14
C40 s:13 0 9.828e-14
C41 s:10 0 1.197e-14
C42 s:10 0 1.6380000000000002e-14
C43 s:10 0 9.828e-14
C44 s:7 0 1.197e-14
C45 s:7 0 1.6380000000000002e-14
C46 s:7 0 9.828e-14
C47 s:4 0 1.197e-14
C48 s:4 0 1.6380000000000002e-14
C49 s:4 0 9.828e-14
C50 s:1 0 1.197e-14
C51 s:1 0 1.6380000000000002e-14
C52 s:1 0 7.56e-15
C53 s:2 0 2.457e-14
C54 s:2 0 7.56e-15
C55 s:2 0 9.828e-14
C56 s:5 0 2.457e-14
C57 s:5 0 9.828e-14
C58 s:8 0 2.457e-14
C59 s:8 0 9.828e-14
C60 s:11 0 2.457e-14
C61 s:11 0 9.828e-14
C62 s:14 0 2.457e-14
C63 s:14 0 4.914e-14
C64 s:34 0 7.56e-15
C65 s:104 0 2.6460000000000002e-14
C66 s:103 0 2.6460000000000002e-14
C67 s:102 0 2.268e-14
C68 s:100 0 2.6460000000000002e-14
C69 s:99 0 2.6460000000000002e-14
C70 s:98 0 2.268e-14
C71 s:96 0 2.6460000000000002e-14
C72 s:95 0 2.6460000000000002e-14
C73 s:94 0 2.268e-14
C74 s:92 0 2.6460000000000002e-14
C75 s:91 0 2.6460000000000002e-14
C76 s:90 0 2.268e-14
C77 s:88 0 2.6460000000000002e-14
C78 s:87 0 2.6460000000000002e-14
C79 s:86 0 2.268e-14
C80 s:89 0 2.268e-14
C81 s:93 0 2.268e-14
C82 s:97 0 2.268e-14
C83 s:101 0 2.268e-14
C84 s:105 0 2.268e-14
C85 s:30 0 7.56e-15
C86 s:30 0 4.0950000000000005e-14
C87 s:30 0 1.6380000000000002e-14
C88 s:31 0 7.56e-15
C89 s:31 0 4.0950000000000005e-14
C90 s:15 0 8.400000000000001e-15
C91 s:15 0 8.400000000000001e-15
C92 s:15 0 9.828e-14
C93 s:18 0 8.400000000000001e-15
C94 s:18 0 8.400000000000001e-15
C95 s:18 0 9.828e-14
C96 s:21 0 8.400000000000001e-15
C97 s:21 0 8.400000000000001e-15
C98 s:21 0 9.828e-14
C99 s:24 0 8.400000000000001e-15
C100 s:24 0 8.400000000000001e-15
C101 s:24 0 9.828e-14
C102 s:27 0 8.400000000000001e-15
C103 s:27 0 8.400000000000001e-15
C104 s:27 0 1.5750000000000002e-14
C105 s:12 0 8.400000000000001e-15
C106 s:12 0 8.400000000000001e-15
C107 s:12 0 9.828e-14
C108 s:9 0 8.400000000000001e-15
C109 s:9 0 8.400000000000001e-15
C110 s:9 0 9.828e-14
C111 s:6 0 8.400000000000001e-15
C112 s:6 0 8.400000000000001e-15
C113 s:6 0 9.828e-14
C114 s:3 0 8.400000000000001e-15
C115 s:3 0 8.400000000000001e-15
C116 s:3 0 9.828e-14
C117 s:0 0 8.400000000000001e-15
C118 s:0 0 8.400000000000001e-15
C119 s:0 0 1.5750000000000002e-14
C120 s:109 0 2.268e-14
C121 s:113 0 2.268e-14
C122 s:117 0 2.268e-14
C123 s:121 0 2.268e-14
C124 s:125 0 2.268e-14
C125 s:120 0 2.6460000000000002e-14
C126 s:119 0 2.6460000000000002e-14
C127 s:118 0 2.268e-14
C128 s:116 0 2.6460000000000002e-14
C129 s:115 0 2.6460000000000002e-14
C130 s:114 0 2.268e-14
C131 s:112 0 2.6460000000000002e-14
C132 s:111 0 2.6460000000000002e-14
C133 s:110 0 2.268e-14
C134 s:108 0 2.6460000000000002e-14
C135 s:107 0 2.6460000000000002e-14
C136 s:106 0 2.268e-14


* Net:d1 ----------------


R262 d1 d1:10 5.46
R263 d1 d1:11 3.276
R264 d1:11 d1:7 2.184
R265 d1:11 d1:26 1.008
R266 d1:11 d1:12 2.184
R267 d1:12 d1:8 2.184
R268 d1:12 d1:28 1.008
R269 d1:12 d1:13 15.288
R270 d1:13 d1:49 1.092
R271 d1:13 MN0@3:d 14
R272 d1:13 d1:48 2.436
R273 d1:13 MN0@3:d 14
R274 d1:13 d1:3 26.208
R275 d1:13 MN0@3:d 14
R276 d1:3 d1:54 1.092
R277 d1:3 MN0@4:d 14
R278 d1:3 d1:53 2.436
R279 d1:3 MN0@4:d 14
R280 d1:3 d1:23 14.112
R281 d1:3 MN0@4:d 14
R282 d1:53 d1:52 3.528
R283 d1:53 MN0@4:d 14
R284 d1:52 d1:16 3.024
R285 d1:52 MN0@4:d 14
R286 d1:54 d1:2 1.092
R287 d1:54 MN0@4:d 14
R288 d1:2 d1:55 2.436
R289 d1:2 MN0@4:d 14
R290 d1:2 d1:9 26.208
R291 d1:2 MN0@4:d 14
R292 d1:2 d1:21 14.112
R293 d1:2 MN0@4:d 14
R294 d1:9 d1:50 2.436
R295 d1:9 MN0@3:d 14
R296 d1:9 d1:49 1.092
R297 d1:9 MN0@3:d 14
R298 d1:9 d1:8 15.288
R299 d1:9 MN0@3:d 14
R300 d1:8 d1:29 1.008
R301 d1:8 d1:7 2.184
R302 d1:7 d1:27 1.008
R303 d1:7 d1:6 8.736
R304 d1:6 d1:45 2.436
R305 d1:6 MN0@2:d 14
R306 d1:6 d1:44 1.092
R307 d1:6 MN0@2:d 14
R308 d1:6 d1:4 26.208
R309 d1:6 MN0@2:d 14
R310 d1:4 d1:40 2.436
R311 d1:4 MN0@1:d 14
R312 d1:4 d1:39 1.092
R313 d1:4 MN0@1:d 14
R314 d1:4 d1:0 26.208
R315 d1:4 MN0@1:d 14
R316 d1:0 d1:35 2.436
R317 d1:0 MN0@0:d 14
R318 d1:0 d1:34 1.092
R319 d1:0 MN0@0:d 14
R320 d1:0 d1:20 3.192
R321 d1:0 MN0@0:d 14
R322 d1:34 d1:1 1.092
R323 d1:34 MN0@0:d 14
R324 d1:1 d1:33 2.436
R325 d1:1 MN0@0:d 14
R326 d1:1 d1:22 3.192
R327 d1:1 MN0@0:d 14
R328 d1:1 d1:5 26.208
R329 d1:1 MN0@0:d 14
R330 d1:5 d1:39 1.092
R331 d1:5 MN0@1:d 14
R332 d1:5 d1:38 2.436
R333 d1:5 MN0@1:d 14
R334 d1:5 d1:10 26.208
R335 d1:5 MN0@1:d 14
R336 d1:10 d1:44 1.092
R337 d1:10 MN0@2:d 14
R338 d1:10 d1:43 2.436
R339 d1:10 MN0@2:d 14
R340 d1:43 d1:42 3.528
R341 d1:43 MN0@2:d 14
R342 d1:42 d1:24 3.024
R343 d1:42 MN0@2:d 14
R344 d1:38 d1:37 3.528
R345 d1:38 MN0@1:d 14
R346 d1:37 d1:18 3.024
R347 d1:37 MN0@1:d 14
R348 d1:33 d1:32 3.528
R349 d1:33 MN0@0:d 14
R350 d1:32 d1:14 3.024
R351 d1:32 MN0@0:d 14
R352 d1:35 d1:36 3.528
R353 d1:35 MN0@0:d 14
R354 d1:36 d1:15 3.024
R355 d1:36 MN0@0:d 14
R356 d1:40 d1:41 3.528
R357 d1:40 MN0@1:d 14
R358 d1:41 d1:19 3.024
R359 d1:41 MN0@1:d 14
R360 d1:45 d1:46 3.528
R361 d1:45 MN0@2:d 14
R362 d1:46 d1:25 3.024
R363 d1:46 MN0@2:d 14
R364 d1:50 d1:51 3.528
R365 d1:50 MN0@3:d 14
R366 d1:51 d1:31 3.024
R367 d1:51 MN0@3:d 14
R368 d1:55 d1:56 3.528
R369 d1:55 MN0@4:d 14
R370 d1:56 d1:17 3.024
R371 d1:56 MN0@4:d 14
R372 d1:48 d1:47 3.528
R373 d1:48 MN0@3:d 14
R374 d1:47 d1:30 3.024
R375 d1:47 MN0@3:d 14
C137 d1:11 0 1.6380000000000002e-14
C138 d1:11 0 7.56e-15
C139 d1:11 0 1.6380000000000002e-14
C140 d1:12 0 1.6380000000000002e-14
C141 d1:12 0 7.56e-15
C142 d1:12 0 1.1466000000000001e-13
C143 d1:13 0 8.190000000000001e-15
C144 d1:13 0 1.827e-14
C145 d1:13 0 1.9656e-13
C146 d1:3 0 8.190000000000001e-15
C147 d1:3 0 1.827e-14
C148 d1:3 0 1.0584000000000001e-13
C149 d1:53 0 2.6460000000000002e-14
C150 d1:52 0 2.268e-14
C151 d1:54 0 8.190000000000001e-15
C152 d1:2 0 1.827e-14
C153 d1:2 0 1.9656e-13
C154 d1:2 0 1.0584000000000001e-13
C155 d1:9 0 1.827e-14
C156 d1:9 0 8.190000000000001e-15
C157 d1:9 0 1.1466000000000001e-13
C158 d1:8 0 7.56e-15
C159 d1:8 0 1.6380000000000002e-14
C160 d1:7 0 7.56e-15
C161 d1:7 0 6.552000000000001e-14
C162 d1:6 0 1.827e-14
C163 d1:6 0 8.190000000000001e-15
C164 d1:6 0 1.9656e-13
C165 d1:4 0 1.827e-14
C166 d1:4 0 8.190000000000001e-15
C167 d1:4 0 1.9656e-13
C168 d1:0 0 1.827e-14
C169 d1:0 0 8.190000000000001e-15
C170 d1:0 0 2.394e-14
C171 d1:34 0 8.190000000000001e-15
C172 d1:1 0 1.827e-14
C173 d1:1 0 2.394e-14
C174 d1:1 0 1.9656e-13
C175 d1:5 0 8.190000000000001e-15
C176 d1:5 0 1.827e-14
C177 d1:5 0 1.9656e-13
C178 d1:10 0 8.190000000000001e-15
C179 d1:10 0 1.827e-14
C180 d1:43 0 2.6460000000000002e-14
C181 d1:42 0 2.268e-14
C182 d1:38 0 2.6460000000000002e-14
C183 d1:37 0 2.268e-14
C184 d1:33 0 2.6460000000000002e-14
C185 d1:32 0 2.268e-14
C186 d1:35 0 2.6460000000000002e-14
C187 d1:36 0 2.268e-14
C188 d1:40 0 2.6460000000000002e-14
C189 d1:41 0 2.268e-14
C190 d1:45 0 2.6460000000000002e-14
C191 d1:46 0 2.268e-14
C192 d1:50 0 2.6460000000000002e-14
C193 d1:51 0 2.268e-14
C194 d1:55 0 2.6460000000000002e-14
C195 d1:56 0 2.268e-14
C196 d1:48 0 2.6460000000000002e-14
C197 d1:47 0 2.268e-14


* Net:d0 ----------------


R376 d0 d0:25 3.276
R377 d0 d0:10 7.644
R378 d0:10 d0:9 2.184
R379 d0:10 MN1@2:d 14
R380 d0:10 d0:74 1.596
R381 d0:10 MN1@2:d 14
R382 d0:10 d0:14 26.208
R383 d0:10 MN1@2:d 14
R384 d0:14 d0:13 2.184
R385 d0:14 MN1@3:d 14
R386 d0:14 d0:78 1.596
R387 d0:14 MN1@3:d 14
R388 d0:14 d0:18 26.208
R389 d0:14 MN1@3:d 14
R390 d0:18 d0:17 2.184
R391 d0:18 MN1@4:d 14
R392 d0:18 d0:82 1.596
R393 d0:18 MN1@4:d 14
R394 d0:18 d0:61 1.008
R395 d0:18 MN1@4:d 14
R396 d0:82 d0:52 3.024
R397 d0:82 MN1@4:d 14
R398 d0:17 d0:83 3.276
R399 d0:17 MN1@4:d 14
R400 d0:17 d0:13 26.208
R401 d0:17 MN1@4:d 14
R402 d0:17 d0:59 1.008
R403 d0:17 MN1@4:d 14
R404 d0:13 d0:79 3.276
R405 d0:13 MN1@3:d 14
R406 d0:13 d0:9 26.208
R407 d0:13 MN1@3:d 14
R408 d0:9 d0:75 3.276
R409 d0:9 MN1@2:d 14
R410 d0:9 d0:23 10.92
R411 d0:9 MN1@2:d 14
R412 d0:23 d0:21 16.044
R413 d0:23 d0:25 2.184
R414 d0:23 d0:22 2.184
R415 d0:22 d0:20 16.044
R416 d0:22 d0:24 2.184
R417 d0:22 d0:5 13.104
R418 d0:5 d0:71 3.276
R419 d0:5 MN1@1:d 14
R420 d0:5 d0:6 2.184
R421 d0:5 MN1@1:d 14
R422 d0:5 d0:1 26.208
R423 d0:5 MN1@1:d 14
R424 d0:1 d0:67 3.276
R425 d0:1 MN1@0:d 14
R426 d0:1 d0:2 2.184
R427 d0:1 MN1@0:d 14
R428 d0:1 d0:58 16.296
R429 d0:1 MN1@0:d 14
R430 d0:2 d0:66 1.596
R431 d0:2 MN1@0:d 14
R432 d0:2 d0:60 16.296
R433 d0:2 MN1@0:d 14
R434 d0:2 d0:6 26.208
R435 d0:2 MN1@0:d 14
R436 d0:6 d0:70 1.596
R437 d0:6 MN1@1:d 14
R438 d0:6 d0:24 13.104
R439 d0:6 MN1@1:d 14
R440 d0:24 d0:62 1.008
R441 d0:24 d0:25 2.184
R442 d0:25 d0:64 1.008
R443 d0:70 d0:34 3.024
R444 d0:70 MN1@1:d 14
R445 d0:66 d0:28 3.024
R446 d0:66 MN1@0:d 14
R447 d0:67 d0:68 3.528
R448 d0:67 MN1@0:d 14
R449 d0:68 d0:69 3.528
R450 d0:68 MN1@0:d 14
R451 d0:69 d0:29 3.024
R452 d0:69 MN1@0:d 14
R453 d0:71 d0:72 3.528
R454 d0:71 MN1@1:d 14
R455 d0:72 d0:73 3.528
R456 d0:72 MN1@1:d 14
R457 d0:73 d0:35 3.024
R458 d0:73 MN1@1:d 14
R459 d0:20 d0:63 1.008
R460 d0:20 d0:8 1.092
R461 d0:20 d0:21 2.184
R462 d0:21 d0:65 1.008
R463 d0:21 d0:11 9.828
R464 d0:11 d0:43 1.092
R465 d0:11 MN0@0:g 342
R466 d0:11 MN1@0:g 342
R467 d0:11 MN0@1:g 342
R468 d0:11 MN1@1:g 342
R469 d0:11 MN0@2:g 342
R470 d0:11 MN1@2:g 342
R471 d0:11 MN0@3:g 342
R472 d0:11 MN1@3:g 342
R473 d0:11 MN0@4:g 342
R474 d0:11 MN1@4:g 342
R475 d0:11 d0:42 1.148
R476 d0:11 MN0@0:g 342
R477 d0:11 MN1@0:g 342
R478 d0:11 MN0@1:g 342
R479 d0:11 MN1@1:g 342
R480 d0:11 MN0@2:g 342
R481 d0:11 MN1@2:g 342
R482 d0:11 MN0@3:g 342
R483 d0:11 MN1@3:g 342
R484 d0:11 MN0@4:g 342
R485 d0:11 MN1@4:g 342
R486 d0:11 d0:12 13.104
R487 d0:11 MN0@0:g 342
R488 d0:11 MN1@0:g 342
R489 d0:11 MN0@1:g 342
R490 d0:11 MN1@1:g 342
R491 d0:11 MN0@2:g 342
R492 d0:11 MN1@2:g 342
R493 d0:11 MN0@3:g 342
R494 d0:11 MN1@3:g 342
R495 d0:11 MN0@4:g 342
R496 d0:11 MN1@4:g 342
R497 d0:12 d0:45 1.092
R498 d0:12 MN0@0:g 342
R499 d0:12 MN1@0:g 342
R500 d0:12 MN0@1:g 342
R501 d0:12 MN1@1:g 342
R502 d0:12 MN0@2:g 342
R503 d0:12 MN1@2:g 342
R504 d0:12 MN0@3:g 342
R505 d0:12 MN1@3:g 342
R506 d0:12 MN0@4:g 342
R507 d0:12 MN1@4:g 342
R508 d0:12 d0:44 1.148
R509 d0:12 MN0@0:g 342
R510 d0:12 MN1@0:g 342
R511 d0:12 MN0@1:g 342
R512 d0:12 MN1@1:g 342
R513 d0:12 MN0@2:g 342
R514 d0:12 MN1@2:g 342
R515 d0:12 MN0@3:g 342
R516 d0:12 MN1@3:g 342
R517 d0:12 MN0@4:g 342
R518 d0:12 MN1@4:g 342
R519 d0:12 d0:15 13.104
R520 d0:12 MN0@0:g 342
R521 d0:12 MN1@0:g 342
R522 d0:12 MN0@1:g 342
R523 d0:12 MN1@1:g 342
R524 d0:12 MN0@2:g 342
R525 d0:12 MN1@2:g 342
R526 d0:12 MN0@3:g 342
R527 d0:12 MN1@3:g 342
R528 d0:12 MN0@4:g 342
R529 d0:12 MN1@4:g 342
R530 d0:15 d0:49 1.092
R531 d0:15 MN0@0:g 342
R532 d0:15 MN1@0:g 342
R533 d0:15 MN0@1:g 342
R534 d0:15 MN1@1:g 342
R535 d0:15 MN0@2:g 342
R536 d0:15 MN1@2:g 342
R537 d0:15 MN0@3:g 342
R538 d0:15 MN1@3:g 342
R539 d0:15 MN0@4:g 342
R540 d0:15 MN1@4:g 342
R541 d0:15 d0:48 1.148
R542 d0:15 MN0@0:g 342
R543 d0:15 MN1@0:g 342
R544 d0:15 MN0@1:g 342
R545 d0:15 MN1@1:g 342
R546 d0:15 MN0@2:g 342
R547 d0:15 MN1@2:g 342
R548 d0:15 MN0@3:g 342
R549 d0:15 MN1@3:g 342
R550 d0:15 MN0@4:g 342
R551 d0:15 MN1@4:g 342
R552 d0:15 d0:16 13.104
R553 d0:15 MN0@0:g 342
R554 d0:15 MN1@0:g 342
R555 d0:15 MN0@1:g 342
R556 d0:15 MN1@1:g 342
R557 d0:15 MN0@2:g 342
R558 d0:15 MN1@2:g 342
R559 d0:15 MN0@3:g 342
R560 d0:15 MN1@3:g 342
R561 d0:15 MN0@4:g 342
R562 d0:15 MN1@4:g 342
R563 d0:16 d0:51 1.092
R564 d0:16 MN0@0:g 342
R565 d0:16 MN1@0:g 342
R566 d0:16 MN0@1:g 342
R567 d0:16 MN1@1:g 342
R568 d0:16 MN0@2:g 342
R569 d0:16 MN1@2:g 342
R570 d0:16 MN0@3:g 342
R571 d0:16 MN1@3:g 342
R572 d0:16 MN0@4:g 342
R573 d0:16 MN1@4:g 342
R574 d0:16 d0:50 1.148
R575 d0:16 MN0@0:g 342
R576 d0:16 MN1@0:g 342
R577 d0:16 MN0@1:g 342
R578 d0:16 MN1@1:g 342
R579 d0:16 MN0@2:g 342
R580 d0:16 MN1@2:g 342
R581 d0:16 MN0@3:g 342
R582 d0:16 MN1@3:g 342
R583 d0:16 MN0@4:g 342
R584 d0:16 MN1@4:g 342
R585 d0:16 d0:19 13.104
R586 d0:16 MN0@0:g 342
R587 d0:16 MN1@0:g 342
R588 d0:16 MN0@1:g 342
R589 d0:16 MN1@1:g 342
R590 d0:16 MN0@2:g 342
R591 d0:16 MN1@2:g 342
R592 d0:16 MN0@3:g 342
R593 d0:16 MN1@3:g 342
R594 d0:16 MN0@4:g 342
R595 d0:16 MN1@4:g 342
R596 d0:19 d0:55 1.092
R597 d0:19 MN0@0:g 342
R598 d0:19 MN1@0:g 342
R599 d0:19 MN0@1:g 342
R600 d0:19 MN1@1:g 342
R601 d0:19 MN0@2:g 342
R602 d0:19 MN1@2:g 342
R603 d0:19 MN0@3:g 342
R604 d0:19 MN1@3:g 342
R605 d0:19 MN0@4:g 342
R606 d0:19 MN1@4:g 342
R607 d0:19 d0:54 1.148
R608 d0:19 MN0@0:g 342
R609 d0:19 MN1@0:g 342
R610 d0:19 MN0@1:g 342
R611 d0:19 MN1@1:g 342
R612 d0:19 MN0@2:g 342
R613 d0:19 MN1@2:g 342
R614 d0:19 MN0@3:g 342
R615 d0:19 MN1@3:g 342
R616 d0:19 MN0@4:g 342
R617 d0:19 MN1@4:g 342
R618 d0:19 d0:57 2.1
R619 d0:19 MN0@0:g 342
R620 d0:19 MN1@0:g 342
R621 d0:19 MN0@1:g 342
R622 d0:19 MN1@1:g 342
R623 d0:19 MN0@2:g 342
R624 d0:19 MN1@2:g 342
R625 d0:19 MN0@3:g 342
R626 d0:19 MN1@3:g 342
R627 d0:19 MN0@4:g 342
R628 d0:19 MN1@4:g 342
R629 d0:8 d0:39 1.092
R630 d0:8 MN0@0:g 342
R631 d0:8 MN1@0:g 342
R632 d0:8 MN0@1:g 342
R633 d0:8 MN1@1:g 342
R634 d0:8 MN0@2:g 342
R635 d0:8 MN1@2:g 342
R636 d0:8 MN0@3:g 342
R637 d0:8 MN1@3:g 342
R638 d0:8 MN0@4:g 342
R639 d0:8 MN1@4:g 342
R640 d0:8 d0:38 1.148
R641 d0:8 MN0@0:g 342
R642 d0:8 MN1@0:g 342
R643 d0:8 MN0@1:g 342
R644 d0:8 MN1@1:g 342
R645 d0:8 MN0@2:g 342
R646 d0:8 MN1@2:g 342
R647 d0:8 MN0@3:g 342
R648 d0:8 MN1@3:g 342
R649 d0:8 MN0@4:g 342
R650 d0:8 MN1@4:g 342
R651 d0:8 d0:7 13.104
R652 d0:8 MN0@0:g 342
R653 d0:8 MN1@0:g 342
R654 d0:8 MN0@1:g 342
R655 d0:8 MN1@1:g 342
R656 d0:8 MN0@2:g 342
R657 d0:8 MN1@2:g 342
R658 d0:8 MN0@3:g 342
R659 d0:8 MN1@3:g 342
R660 d0:8 MN0@4:g 342
R661 d0:8 MN1@4:g 342
R662 d0:7 d0:37 1.092
R663 d0:7 MN0@0:g 342
R664 d0:7 MN1@0:g 342
R665 d0:7 MN0@1:g 342
R666 d0:7 MN1@1:g 342
R667 d0:7 MN0@2:g 342
R668 d0:7 MN1@2:g 342
R669 d0:7 MN0@3:g 342
R670 d0:7 MN1@3:g 342
R671 d0:7 MN0@4:g 342
R672 d0:7 MN1@4:g 342
R673 d0:7 d0:36 1.148
R674 d0:7 MN0@0:g 342
R675 d0:7 MN1@0:g 342
R676 d0:7 MN0@1:g 342
R677 d0:7 MN1@1:g 342
R678 d0:7 MN0@2:g 342
R679 d0:7 MN1@2:g 342
R680 d0:7 MN0@3:g 342
R681 d0:7 MN1@3:g 342
R682 d0:7 MN0@4:g 342
R683 d0:7 MN1@4:g 342
R684 d0:7 d0:4 13.104
R685 d0:7 MN0@0:g 342
R686 d0:7 MN1@0:g 342
R687 d0:7 MN0@1:g 342
R688 d0:7 MN1@1:g 342
R689 d0:7 MN0@2:g 342
R690 d0:7 MN1@2:g 342
R691 d0:7 MN0@3:g 342
R692 d0:7 MN1@3:g 342
R693 d0:7 MN0@4:g 342
R694 d0:7 MN1@4:g 342
R695 d0:4 d0:33 1.092
R696 d0:4 MN0@0:g 342
R697 d0:4 MN1@0:g 342
R698 d0:4 MN0@1:g 342
R699 d0:4 MN1@1:g 342
R700 d0:4 MN0@2:g 342
R701 d0:4 MN1@2:g 342
R702 d0:4 MN0@3:g 342
R703 d0:4 MN1@3:g 342
R704 d0:4 MN0@4:g 342
R705 d0:4 MN1@4:g 342
R706 d0:4 d0:32 1.148
R707 d0:4 MN0@0:g 342
R708 d0:4 MN1@0:g 342
R709 d0:4 MN0@1:g 342
R710 d0:4 MN1@1:g 342
R711 d0:4 MN0@2:g 342
R712 d0:4 MN1@2:g 342
R713 d0:4 MN0@3:g 342
R714 d0:4 MN1@3:g 342
R715 d0:4 MN0@4:g 342
R716 d0:4 MN1@4:g 342
R717 d0:4 d0:3 13.104
R718 d0:4 MN0@0:g 342
R719 d0:4 MN1@0:g 342
R720 d0:4 MN0@1:g 342
R721 d0:4 MN1@1:g 342
R722 d0:4 MN0@2:g 342
R723 d0:4 MN1@2:g 342
R724 d0:4 MN0@3:g 342
R725 d0:4 MN1@3:g 342
R726 d0:4 MN0@4:g 342
R727 d0:4 MN1@4:g 342
R728 d0:3 d0:31 1.092
R729 d0:3 MN0@0:g 342
R730 d0:3 MN1@0:g 342
R731 d0:3 MN0@1:g 342
R732 d0:3 MN1@1:g 342
R733 d0:3 MN0@2:g 342
R734 d0:3 MN1@2:g 342
R735 d0:3 MN0@3:g 342
R736 d0:3 MN1@3:g 342
R737 d0:3 MN0@4:g 342
R738 d0:3 MN1@4:g 342
R739 d0:3 d0:30 1.148
R740 d0:3 MN0@0:g 342
R741 d0:3 MN1@0:g 342
R742 d0:3 MN0@1:g 342
R743 d0:3 MN1@1:g 342
R744 d0:3 MN0@2:g 342
R745 d0:3 MN1@2:g 342
R746 d0:3 MN0@3:g 342
R747 d0:3 MN1@3:g 342
R748 d0:3 MN0@4:g 342
R749 d0:3 MN1@4:g 342
R750 d0:3 d0:0 13.104
R751 d0:3 MN0@0:g 342
R752 d0:3 MN1@0:g 342
R753 d0:3 MN0@1:g 342
R754 d0:3 MN1@1:g 342
R755 d0:3 MN0@2:g 342
R756 d0:3 MN1@2:g 342
R757 d0:3 MN0@3:g 342
R758 d0:3 MN1@3:g 342
R759 d0:3 MN0@4:g 342
R760 d0:3 MN1@4:g 342
R761 d0:0 d0:27 1.092
R762 d0:0 MN0@0:g 342
R763 d0:0 MN1@0:g 342
R764 d0:0 MN0@1:g 342
R765 d0:0 MN1@1:g 342
R766 d0:0 MN0@2:g 342
R767 d0:0 MN1@2:g 342
R768 d0:0 MN0@3:g 342
R769 d0:0 MN1@3:g 342
R770 d0:0 MN0@4:g 342
R771 d0:0 MN1@4:g 342
R772 d0:0 d0:26 1.148
R773 d0:0 MN0@0:g 342
R774 d0:0 MN1@0:g 342
R775 d0:0 MN0@1:g 342
R776 d0:0 MN1@1:g 342
R777 d0:0 MN0@2:g 342
R778 d0:0 MN1@2:g 342
R779 d0:0 MN0@3:g 342
R780 d0:0 MN1@3:g 342
R781 d0:0 MN0@4:g 342
R782 d0:0 MN1@4:g 342
R783 d0:0 d0:56 2.1
R784 d0:0 MN0@0:g 342
R785 d0:0 MN1@0:g 342
R786 d0:0 MN0@1:g 342
R787 d0:0 MN1@1:g 342
R788 d0:0 MN0@2:g 342
R789 d0:0 MN1@2:g 342
R790 d0:0 MN0@3:g 342
R791 d0:0 MN1@3:g 342
R792 d0:0 MN0@4:g 342
R793 d0:0 MN1@4:g 342
R794 d0:75 d0:76 3.528
R795 d0:75 MN1@2:d 14
R796 d0:76 d0:77 3.528
R797 d0:76 MN1@2:d 14
R798 d0:77 d0:41 3.024
R799 d0:77 MN1@2:d 14
R800 d0:79 d0:80 3.528
R801 d0:79 MN1@3:d 14
R802 d0:80 d0:81 3.528
R803 d0:80 MN1@3:d 14
R804 d0:81 d0:47 3.024
R805 d0:81 MN1@3:d 14
R806 d0:83 d0:84 3.528
R807 d0:83 MN1@4:d 14
R808 d0:84 d0:85 3.528
R809 d0:84 MN1@4:d 14
R810 d0:85 d0:53 3.024
R811 d0:85 MN1@4:d 14
R812 d0:78 d0:46 3.024
R813 d0:78 MN1@3:d 14
R814 d0:74 d0:40 3.024
R815 d0:74 MN1@2:d 14
R816 MN1@4:d MN2@0:d 0.01
C198 d0:10 0 1.6380000000000002e-14
C199 d0:10 0 1.197e-14
C200 d0:10 0 1.9656e-13
C201 d0:14 0 1.6380000000000002e-14
C202 d0:14 0 1.197e-14
C203 d0:14 0 1.9656e-13
C204 d0:18 0 1.6380000000000002e-14
C205 d0:18 0 1.197e-14
C206 d0:18 0 7.56e-15
C207 d0:82 0 2.268e-14
C208 d0:17 0 2.457e-14
C209 d0:17 0 1.9656e-13
C210 d0:17 0 7.56e-15
C211 d0:13 0 2.457e-14
C212 d0:13 0 1.9656e-13
C213 d0:9 0 2.457e-14
C214 d0:9 0 8.190000000000001e-14
C215 d0:23 0 1.2033e-13
C216 d0:23 0 1.6380000000000002e-14
C217 d0:23 0 1.6380000000000002e-14
C218 d0:22 0 1.2033e-13
C219 d0:22 0 1.6380000000000002e-14
C220 d0:22 0 9.828e-14
C221 d0:5 0 2.457e-14
C222 d0:5 0 1.6380000000000002e-14
C223 d0:5 0 1.9656e-13
C224 d0:1 0 2.457e-14
C225 d0:1 0 1.6380000000000002e-14
C226 d0:1 0 1.2222e-13
C227 d0:2 0 1.197e-14
C228 d0:2 0 1.2222e-13
C229 d0:2 0 1.9656e-13
C230 d0:6 0 1.197e-14
C231 d0:6 0 9.828e-14
C232 d0:24 0 7.56e-15
C233 d0:24 0 1.6380000000000002e-14
C234 d0:25 0 7.56e-15
C235 d0:70 0 2.268e-14
C236 d0:66 0 2.268e-14
C237 d0:67 0 2.6460000000000002e-14
C238 d0:68 0 2.6460000000000002e-14
C239 d0:69 0 2.268e-14
C240 d0:71 0 2.6460000000000002e-14
C241 d0:72 0 2.6460000000000002e-14
C242 d0:73 0 2.268e-14
C243 d0:20 0 7.56e-15
C244 d0:20 0 8.190000000000001e-15
C245 d0:20 0 1.6380000000000002e-14
C246 d0:21 0 7.56e-15
C247 d0:21 0 7.371000000000001e-14
C248 d0:11 0 8.190000000000001e-15
C249 d0:11 0 8.61e-15
C250 d0:11 0 9.828e-14
C251 d0:12 0 8.190000000000001e-15
C252 d0:12 0 8.61e-15
C253 d0:12 0 9.828e-14
C254 d0:15 0 8.190000000000001e-15
C255 d0:15 0 8.61e-15
C256 d0:15 0 9.828e-14
C257 d0:16 0 8.190000000000001e-15
C258 d0:16 0 8.61e-15
C259 d0:16 0 9.828e-14
C260 d0:19 0 8.190000000000001e-15
C261 d0:19 0 8.61e-15
C262 d0:19 0 1.5750000000000002e-14
C263 d0:8 0 8.190000000000001e-15
C264 d0:8 0 8.61e-15
C265 d0:8 0 9.828e-14
C266 d0:7 0 8.190000000000001e-15
C267 d0:7 0 8.61e-15
C268 d0:7 0 9.828e-14
C269 d0:4 0 8.190000000000001e-15
C270 d0:4 0 8.61e-15
C271 d0:4 0 9.828e-14
C272 d0:3 0 8.190000000000001e-15
C273 d0:3 0 8.61e-15
C274 d0:3 0 9.828e-14
C275 d0:0 0 8.190000000000001e-15
C276 d0:0 0 8.61e-15
C277 d0:0 0 1.5750000000000002e-14
C278 d0:75 0 2.6460000000000002e-14
C279 d0:76 0 2.6460000000000002e-14
C280 d0:77 0 2.268e-14
C281 d0:79 0 2.6460000000000002e-14
C282 d0:80 0 2.6460000000000002e-14
C283 d0:81 0 2.268e-14
C284 d0:83 0 2.6460000000000002e-14
C285 d0:84 0 2.6460000000000002e-14
C286 d0:85 0 2.268e-14
C287 d0:78 0 2.268e-14
C288 d0:74 0 2.268e-14


xMN0@0 MN0@0:d MN0@0:g MN0@0:s MN0@0:b nfet m=1 l=1.4e-08 nfin=15 nf=1 par=1 par_nf=1 asej=8.91e-15 adej=8.91e-15 psej=1.78e-06 pdej=1.78e-06 pdevdops=1 pdevlgeos=1 pdevwgeos=1psw_acv_sign=1 plnest=1 pldist=1 plorient=0 cpp=7.8e-08 fpitch=4.8e-08 xpos=-99 ypos=-99 ptwell=0sca=0 scb=0 scc=0 pre_layout_local=-1 ngcon=1 p_vta=0 p_la=0 u0mult_fet=1 lle_sa=71e-9 lle_sb=71e-9lle_rxrxa=78e-9 lle_rxrxb=78e-9 lle_rxrxn=192e-9 lle_rxrxs=192e-9 lle_pcrxn=55e-9 lle_pcrxs=55e-9lle_nwa=2e-6 lle_nwb=2e-6 lle_nwn=192e-9 lle_nws=192e-9 lle_ctne=0 lle_ctnw=0 lle_ctse=0 lle_ctsw=0lle_sctne=0 lle_sctnw=0 lle_sctse=0 lle_sctsw=0 lrsd=27e-9 dtemp=0 l_shape=0 l_shape_s=0 nsig_dop1=0nsig_dop2=0 nsig_dibl=0 nsig_pc=0 nsig_rx=0 fc_index=0 fc_sigma=3 analog=-1 nf_pex=1
xMN1@0 MN1@0:d MN1@0:g MN1@0:s MN1@0:b nfet m=1 l=1.4e-08 nfin=15 nf=1 par=1 par_nf=1 asej=8.91e-15 adej=8.91e-15 psej=1.78e-06 pdej=1.78e-06 pdevdops=1 pdevlgeos=1 pdevwgeos=1psw_acv_sign=1 plnest=1 pldist=1 plorient=0 cpp=7.8e-08 fpitch=4.8e-08 xpos=-99 ypos=-99 ptwell=0sca=0 scb=0 scc=0 pre_layout_local=-1 ngcon=1 p_vta=0 p_la=0 u0mult_fet=1 lle_sa=71e-9 lle_sb=71e-9lle_rxrxa=78e-9 lle_rxrxb=78e-9 lle_rxrxn=192e-9 lle_rxrxs=192e-9 lle_pcrxn=55e-9 lle_pcrxs=55e-9lle_nwa=2e-6 lle_nwb=2e-6 lle_nwn=192e-9 lle_nws=192e-9 lle_ctne=0 lle_ctnw=0 lle_ctse=0 lle_ctsw=0lle_sctne=0 lle_sctnw=0 lle_sctse=0 lle_sctsw=0 lrsd=27e-9 dtemp=0 l_shape=0 l_shape_s=0 nsig_dop1=0nsig_dop2=0 nsig_dibl=0 nsig_pc=0 nsig_rx=0 fc_index=0 fc_sigma=3 analog=-1 nf_pex=1
xMN0@1 MN0@1:d MN0@1:g MN0@1:s MN0@1:b nfet m=1 l=1.4e-08 nfin=15 nf=1 par=1 par_nf=1 asej=8.91e-15 adej=8.91e-15 psej=1.78e-06 pdej=1.78e-06 pdevdops=1 pdevlgeos=1 pdevwgeos=1psw_acv_sign=1 plnest=1 pldist=1 plorient=0 cpp=7.8e-08 fpitch=4.8e-08 xpos=-99 ypos=-99 ptwell=0sca=0 scb=0 scc=0 pre_layout_local=-1 ngcon=1 p_vta=0 p_la=0 u0mult_fet=1 lle_sa=71e-9 lle_sb=71e-9lle_rxrxa=78e-9 lle_rxrxb=78e-9 lle_rxrxn=192e-9 lle_rxrxs=192e-9 lle_pcrxn=55e-9 lle_pcrxs=55e-9lle_nwa=2e-6 lle_nwb=2e-6 lle_nwn=192e-9 lle_nws=192e-9 lle_ctne=0 lle_ctnw=0 lle_ctse=0 lle_ctsw=0lle_sctne=0 lle_sctnw=0 lle_sctse=0 lle_sctsw=0 lrsd=27e-9 dtemp=0 l_shape=0 l_shape_s=0 nsig_dop1=0nsig_dop2=0 nsig_dibl=0 nsig_pc=0 nsig_rx=0 fc_index=0 fc_sigma=3 analog=-1 nf_pex=1
xMN1@1 MN1@1:d MN1@1:g MN1@1:s MN1@1:b nfet m=1 l=1.4e-08 nfin=15 nf=1 par=1 par_nf=1 asej=8.91e-15 adej=8.91e-15 psej=1.78e-06 pdej=1.78e-06 pdevdops=1 pdevlgeos=1 pdevwgeos=1psw_acv_sign=1 plnest=1 pldist=1 plorient=0 cpp=7.8e-08 fpitch=4.8e-08 xpos=-99 ypos=-99 ptwell=0sca=0 scb=0 scc=0 pre_layout_local=-1 ngcon=1 p_vta=0 p_la=0 u0mult_fet=1 lle_sa=71e-9 lle_sb=71e-9lle_rxrxa=78e-9 lle_rxrxb=78e-9 lle_rxrxn=192e-9 lle_rxrxs=192e-9 lle_pcrxn=55e-9 lle_pcrxs=55e-9lle_nwa=2e-6 lle_nwb=2e-6 lle_nwn=192e-9 lle_nws=192e-9 lle_ctne=0 lle_ctnw=0 lle_ctse=0 lle_ctsw=0lle_sctne=0 lle_sctnw=0 lle_sctse=0 lle_sctsw=0 lrsd=27e-9 dtemp=0 l_shape=0 l_shape_s=0 nsig_dop1=0nsig_dop2=0 nsig_dibl=0 nsig_pc=0 nsig_rx=0 fc_index=0 fc_sigma=3 analog=-1 nf_pex=1