*|DSPF	1.5
*|DESIGN	nmos_dp_38x5x1_111_1
*|DATE	"Wed Jun 19 2025"
*|VENDOR	"Mentor Graphics Corporation"
*|PROGRAM	"Calibre xACT"
*|VERSION	"v2020.4_34.17"
*|DIVIDER	|
*|DELIMITER	:
*|BUSBIT	[]
* Corner Name: 12lp_11M_3Mx_4Cx_2Kx_2Gx_LB_nominal_detailed_25
* Nominal Temperature: 25C
* Circuit Temperature: 25C
*

* Integrated TICER reduction is not enabled.
* SHORT DELAY THRESHOLD: 2e-14
* Fill Mode: NG
* PEX REDUCE CC ABSOLUTE : disabled
* PEX REDUCE CC RATIO : disabled
* Delta transform mode : 344834

.subckt nmos_dp_38x5x1_111_1 b d0 d1 g0 g1 s

* Net:b ----------------


R1 b b:0 10.92
R2 b b:1 10.92
R3 b:1 b:5 1.12
R4 b:1 MN1@0:b 14
R5 b:1 b:4 1.12
R6 b:1 MN1@0:b 14
R7 b:1 b:7 5.908
R8 b:1 MN1@0:b 14
R9 b:0 b:3 1.12
R10 b:0 MN0@0:b 14
R11 b:0 b:2 1.12
R12 b:0 MN0@0:b 14
R13 b:0 b:6 5.908
R14 b:0 MN0@0:b 14
R15 MN0@0:b MN0@1:b 0.01
R16 MN0@1:b MN0@2:b 0.01
R17 MN0@2:b MN0@3:b 0.01
R18 MN0@3:b MN0@4:b 0.01
R19 MN1@0:b MN1@1:b 0.01
R20 MN1@1:b MN1@2:b 0.01
R21 MN1@2:b MN1@3:b 0.01
R22 MN1@3:b MN1@4:b 0.01
C1 b:1 0 8.400000000000001e-15
C2 b:1 0 8.400000000000001e-15
C3 b:1 0 4.431e-14
C4 b:0 0 8.400000000000001e-15
C5 b:0 0 8.400000000000001e-15
C6 b:0 0 4.431e-14


* Net:s ----------------


R23 s s:11 1.092
R24 s s:13 1.092
R25 s:13 s:12 2.184
R26 s:13 s:36 1.008
R27 s:13 s:15 4.368
R28 s:15 s:101 0.672
R29 s:15 MN1@0:s 14
R30 s:15 s:100 2.856
R31 s:15 MN1@0:s 14
R32 s:15 s:17 4.368
R33 s:15 MN1@0:s 14
R34 s:17 s:115 0.672
R35 s:17 MN1@1:s 14
R36 s:17 s:114 2.856
R37 s:17 MN1@1:s 14
R38 s:17 s:9 3.724
R39 s:17 MN1@1:s 14
R40 s:9 s:8 2.184
R41 s:9 s:32 1.008
R42 s:9 s:19 0.644
R43 s:19 s:129 0.672
R44 s:19 MN1@3:s 14
R45 s:19 s:128 2.856
R46 s:19 MN1@3:s 14
R47 s:19 s:5 1.54
R48 s:19 MN1@3:s 14
R49 s:5 s:4 2.184
R50 s:5 s:28 1.008
R51 s:5 s:47 1.736
R52 s:4 s:29 1.008
R53 s:4 s:18 1.54
R54 s:4 s:45 1.736
R55 s:18 s:130 2.016
R56 s:18 MN1@3:s 14
R57 s:18 s:129 1.512
R58 s:18 MN1@3:s 14
R59 s:18 s:8 0.644
R60 s:18 MN1@3:s 14
R61 s:8 s:33 1.008
R62 s:8 s:16 3.724
R63 s:16 s:116 2.016
R64 s:16 MN1@1:s 14
R65 s:16 s:115 1.512
R66 s:16 MN1@1:s 14
R67 s:16 s:14 4.368
R68 s:16 MN1@1:s 14
R69 s:14 s:102 2.016
R70 s:14 MN1@0:s 14
R71 s:14 s:101 1.512
R72 s:14 MN1@0:s 14
R73 s:14 s:12 4.368
R74 s:14 MN1@0:s 14
R75 s:12 s:37 1.008
R76 s:12 s:10 2.184
R77 s:10 s:35 1.008
R78 s:10 s:11 2.184
R79 s:10 s:21 5.012
R80 s:21 s:51 1.008
R81 s:21 s:23 2.184
R82 s:21 s:6 1.54
R83 s:6 s:88 2.016
R84 s:6 MN0@3:s 14
R85 s:6 s:87 1.512
R86 s:6 MN0@3:s 14
R87 s:6 s:20 0.644
R88 s:6 MN0@3:s 14
R89 s:20 s:49 1.008
R90 s:20 s:22 2.184
R91 s:20 s:2 3.724
R92 s:2 s:74 2.016
R93 s:2 MN0@1:s 14
R94 s:2 s:73 1.512
R95 s:2 MN0@1:s 14
R96 s:2 s:0 4.368
R97 s:2 MN0@1:s 14
R98 s:0 s:60 2.016
R99 s:0 MN0@0:s 14
R100 s:0 s:59 1.512
R101 s:0 MN0@0:s 14
R102 s:0 s:44 1.092
R103 s:0 MN0@0:s 14
R104 s:59 s:1 0.672
R105 s:59 MN0@0:s 14
R106 s:1 s:58 2.856
R107 s:1 MN0@0:s 14
R108 s:1 s:46 1.092
R109 s:1 MN0@0:s 14
R110 s:1 s:3 4.368
R111 s:1 MN0@0:s 14
R112 s:3 s:73 0.672
R113 s:3 MN0@1:s 14
R114 s:3 s:72 2.856
R115 s:3 MN0@1:s 14
R116 s:3 s:22 3.724
R117 s:3 MN0@1:s 14
R118 s:22 s:48 1.008
R119 s:22 s:7 0.644
R120 s:7 s:87 0.672
R121 s:7 MN0@3:s 14
R122 s:7 s:86 2.856
R123 s:7 MN0@3:s 14
R124 s:7 s:23 1.54
R125 s:7 MN0@3:s 14
R126 s:23 s:50 1.008
R127 s:23 s:11 5.012
R128 s:11 s:34 1.008
R129 s:86 s:85 3.528
R130 s:86 MN0@3:s 14
R131 s:85 s:84 3.528
R132 s:85 MN0@3:s 14
R133 s:84 s:83 3.528
R134 s:84 MN0@3:s 14
R135 s:83 s:82 3.528
R136 s:83 MN0@3:s 14
R137 s:82 s:81 3.528
R138 s:82 MN0@3:s 14
R139 s:81 s:80 3.528
R140 s:81 MN0@3:s 14
R141 s:80 s:30 2.604
R142 s:80 MN0@3:s 14
R143 s:72 s:71 3.528
R144 s:72 MN0@1:s 14
R145 s:71 s:70 3.528
R146 s:71 MN0@1:s 14
R147 s:70 s:69 3.528
R148 s:70 MN0@1:s 14
R149 s:69 s:68 3.528
R150 s:69 MN0@1:s 14
R151 s:68 s:67 3.528
R152 s:68 MN0@1:s 14
R153 s:67 s:66 3.528
R154 s:67 MN0@1:s 14
R155 s:66 s:26 2.604
R156 s:66 MN0@1:s 14
R157 s:58 s:57 3.528
R158 s:58 MN0@0:s 14
R159 s:57 s:56 3.528
R160 s:57 MN0@0:s 14
R161 s:56 s:55 3.528
R162 s:56 MN0@0:s 14
R163 s:55 s:54 3.528
R164 s:55 MN0@0:s 14
R165 s:54 s:53 3.528
R166 s:54 MN0@0:s 14
R167 s:53 s:52 3.528
R168 s:53 MN0@0:s 14
R169 s:52 s:24 2.604
R170 s:52 MN0@0:s 14
R171 s:60 s:61 3.528
R172 s:60 MN0@0:s 14
R173 s:61 s:62 3.528
R174 s:61 MN0@0:s 14
R175 s:62 s:63 3.528
R176 s:62 MN0@0:s 14
R177 s:63 s:64 3.528
R178 s:63 MN0@0:s 14
R179 s:64 s:65 3.528
R180 s:64 MN0@0:s 14
R181 s:65 s:25 2.604
R182 s:65 MN0@0:s 14
R183 s:74 s:75 3.528
R184 s:74 MN0@1:s 14
R185 s:75 s:76 3.528
R186 s:75 MN0@1:s 14
R187 s:76 s:77 3.528
R188 s:76 MN0@1:s 14
R189 s:77 s:78 3.528
R190 s:77 MN0@1:s 14
R191 s:78 s:79 3.528
R192 s:78 MN0@1:s 14
R193 s:79 s:27 2.604
R194 s:79 MN0@1:s 14
R195 s:88 s:89 3.528
R196 s:88 MN0@3:s 14
R197 s:89 s:90 3.528
R198 s:89 MN0@3:s 14
R199 s:90 s:91 3.528
R200 s:90 MN0@3:s 14
R201 s:91 s:92 3.528
R202 s:91 MN0@3:s 14
R203 s:92 s:93 3.528
R204 s:92 MN0@3:s 14
R205 s:93 s:31 2.604
R206 s:93 MN0@3:s 14
R207 s:102 s:103 3.528
R208 s:102 MN1@0:s 14
R209 s:103 s:104 3.528
R210 s:103 MN1@0:s 14
R211 s:104 s:105 3.528
R212 s:104 MN1@0:s 14
R213 s:105 s:106 3.528
R214 s:105 MN1@0:s 14
R215 s:106 s:107 3.528
R216 s:106 MN1@0:s 14
R217 s:107 s:39 2.604
R218 s:107 MN1@0:s 14
R219 s:116 s:117 3.528
R220 s:116 MN1@1:s 14
R221 s:117 s:118 3.528
R222 s:117 MN1@1:s 14
R223 s:118 s:119 3.528
R224 s:118 MN1@1:s 14
R225 s:119 s:120 3.528
R226 s:119 MN1@1:s 14
R227 s:120 s:121 3.528
R228 s:120 MN1@1:s 14
R229 s:121 s:41 2.604
R230 s:121 MN1@1:s 14
R231 s:130 s:131 3.528
R232 s:130 MN1@3:s 14
R233 s:131 s:132 3.528
R234 s:131 MN1@3:s 14
R235 s:132 s:133 3.528
R236 s:132 MN1@3:s 14
R237 s:133 s:134 3.528
R238 s:133 MN1@3:s 14
R239 s:134 s:135 3.528
R240 s:134 MN1@3:s 14
R241 s:135 s:43 2.604
R242 s:135 MN1@3:s 14
R243 s:128 s:127 3.528
R244 s:128 MN1@3:s 14
R245 s:127 s:126 3.528
R246 s:127 MN1@3:s 14
R247 s:126 s:125 3.528
R248 s:126 MN1@3:s 14
R249 s:125 s:124 3.528
R250 s:125 MN1@3:s 14
R251 s:124 s:123 3.528
R252 s:124 MN1@3:s 14
R253 s:123 s:122 3.528
R254 s:123 MN1@3:s 14
R255 s:122 s:42 2.604
R256 s:122 MN1@3:s 14
R257 s:114 s:113 3.528
R258 s:114 MN1@1:s 14
R259 s:113 s:112 3.528
R260 s:113 MN1@1:s 14
R261 s:112 s:111 3.528
R262 s:112 MN1@1:s 14
R263 s:111 s:110 3.528
R264 s:111 MN1@1:s 14
R265 s:110 s:109 3.528
R266 s:110 MN1@1:s 14
R267 s:109 s:108 3.528
R268 s:109 MN1@1:s 14
R269 s:108 s:40 2.604
R270 s:108 MN1@1:s 14
R271 s:100 s:99 3.528
R272 s:100 MN1@0:s 14
R273 s:99 s:98 3.528
R274 s:99 MN1@0:s 14
R275 s:98 s:97 3.528
R276 s:98 MN1@0:s 14
R277 s:97 s:96 3.528
R278 s:97 MN1@0:s 14
R279 s:96 s:95 3.528
R280 s:96 MN1@0:s 14
R281 s:95 s:94 3.528
R282 s:95 MN1@0:s 14
R283 s:94 s:38 2.604
R284 s:94 MN1@0:s 14
R285 MN0@1:s MN0@2:s 0.01
R286 MN0@3:s MN0@4:s 0.01
R287 MN1@1:s MN1@2:s 0.01
R288 MN1@3:s MN1@4:s 0.01
C7 s:13 0 1.6380000000000002e-14
C8 s:13 0 7.56e-15
C9 s:13 0 3.2760000000000004e-14
C10 s:15 0 5.04e-15
C11 s:15 0 2.1420000000000002e-14
C12 s:15 0 3.2760000000000004e-14
C13 s:17 0 5.04e-15
C14 s:17 0 2.1420000000000002e-14
C15 s:17 0 2.793e-14
C16 s:9 0 1.6380000000000002e-14
C17 s:9 0 7.56e-15
C18 s:9 0 4.83e-15
C19 s:19 0 5.04e-15
C20 s:19 0 2.1420000000000002e-14
C21 s:19 0 1.155e-14
C22 s:5 0 1.6380000000000002e-14
C23 s:5 0 7.56e-15
C24 s:5 0 1.3020000000000001e-14
C25 s:4 0 7.56e-15
C26 s:4 0 1.155e-14
C27 s:4 0 1.3020000000000001e-14
C28 s:18 0 1.512e-14
C29 s:18 0 1.134e-14
C30 s:18 0 4.83e-15
C31 s:8 0 7.56e-15
C32 s:8 0 2.793e-14
C33 s:16 0 1.512e-14
C34 s:16 0 1.134e-14
C35 s:16 0 3.2760000000000004e-14
C36 s:14 0 1.512e-14
C37 s:14 0 1.134e-14
C38 s:14 0 3.2760000000000004e-14
C39 s:12 0 7.56e-15
C40 s:12 0 1.6380000000000002e-14
C41 s:10 0 7.56e-15
C42 s:10 0 1.6380000000000002e-14
C43 s:10 0 3.759e-14
C44 s:21 0 7.56e-15
C45 s:21 0 1.6380000000000002e-14
C46 s:21 0 1.155e-14
C47 s:6 0 1.512e-14
C48 s:6 0 1.134e-14
C49 s:6 0 4.83e-15
C50 s:20 0 7.56e-15
C51 s:20 0 1.6380000000000002e-14
C52 s:20 0 2.793e-14
C53 s:2 0 1.512e-14
C54 s:2 0 1.134e-14
C55 s:2 0 3.2760000000000004e-14
C56 s:0 0 1.512e-14
C57 s:0 0 1.134e-14
C58 s:0 0 8.190000000000001e-15
C59 s:59 0 5.04e-15
C60 s:1 0 2.1420000000000002e-14
C61 s:1 0 8.190000000000001e-15
C62 s:1 0 3.2760000000000004e-14
C63 s:3 0 5.04e-15
C64 s:3 0 2.1420000000000002e-14
C65 s:3 0 2.793e-14
C66 s:22 0 7.56e-15
C67 s:22 0 4.83e-15
C68 s:7 0 5.04e-15
C69 s:7 0 2.1420000000000002e-14
C70 s:7 0 1.155e-14
C71 s:23 0 7.56e-15
C72 s:23 0 3.759e-14
C73 s:11 0 7.56e-15
C74 s:86 0 2.6460000000000002e-14
C75 s:85 0 2.6460000000000002e-14
C76 s:84 0 2.6460000000000002e-14
C77 s:83 0 2.6460000000000002e-14
C78 s:82 0 2.6460000000000002e-14
C79 s:81 0 2.6460000000000002e-14
C80 s:80 0 1.953e-14
C81 s:72 0 2.6460000000000002e-14
C82 s:71 0 2.6460000000000002e-14
C83 s:70 0 2.6460000000000002e-14
C84 s:69 0 2.6460000000000002e-14
C85 s:68 0 2.6460000000000002e-14
C86 s:67 0 2.6460000000000002e-14
C87 s:66 0 1.953e-14
C88 s:58 0 2.6460000000000002e-14
C89 s:57 0 2.6460000000000002e-14
C90 s:56 0 2.6460000000000002e-14
C91 s:55 0 2.6460000000000002e-14
C92 s:54 0 2.6460000000000002e-14
C93 s:53 0 2.6460000000000002e-14
C94 s:52 0 1.953e-14
C95 s:60 0 2.6460000000000002e-14
C96 s:61 0 2.6460000000000002e-14
C97 s:62 0 2.6460000000000002e-14
C98 s:63 0 2.6460000000000002e-14
C99 s:64 0 2.6460000000000002e-14
C100 s:65 0 1.953e-14
C101 s:74 0 2.6460000000000002e-14
C102 s:75 0 2.6460000000000002e-14
C103 s:76 0 2.6460000000000002e-14
C104 s:77 0 2.6460000000000002e-14
C105 s:78 0 2.6460000000000002e-14
C106 s:79 0 1.953e-14
C107 s:88 0 2.6460000000000002e-14
C108 s:89 0 2.6460000000000002e-14
C109 s:90 0 2.6460000000000002e-14
C110 s:91 0 2.6460000000000002e-14
C111 s:92 0 2.6460000000000002e-14
C112 s:93 0 1.953e-14
C113 s:102 0 2.6460000000000002e-14
C114 s:103 0 2.6460000000000002e-14
C115 s:104 0 2.6460000000000002e-14
C116 s:105 0 2.6460000000000002e-14
C117 s:106 0 2.6460000000000002e-14
C118 s:107 0 1.953e-14
C119 s:116 0 2.6460000000000002e-14
C120 s:117 0 2.6460000000000002e-14
C121 s:118 0 2.6460000000000002e-14
C122 s:119 0 2.6460000000000002e-14
C123 s:120 0 2.6460000000000002e-14
C124 s:121 0 1.953e-14
C125 s:130 0 2.6460000000000002e-14
C126 s:131 0 2.6460000000000002e-14
C127 s:132 0 2.6460000000000002e-14
C128 s:133 0 2.6460000000000002e-14
C129 s:134 0 2.6460000000000002e-14
C130 s:135 0 1.953e-14
C131 s:128 0 2.6460000000000002e-14
C132 s:127 0 2.6460000000000002e-14
C133 s:126 0 2.6460000000000002e-14
C134 s:125 0 2.6460000000000002e-14
C135 s:124 0 2.6460000000000002e-14
C136 s:123 0 2.6460000000000002e-14
C137 s:122 0 1.953e-14
C138 s:114 0 2.6460000000000002e-14
C139 s:113 0 2.6460000000000002e-14
C140 s:112 0 2.6460000000000002e-14
C141 s:111 0 2.6460000000000002e-14
C142 s:110 0 2.6460000000000002e-14
C143 s:109 0 2.6460000000000002e-14
C144 s:108 0 1.953e-14
C145 s:100 0 2.6460000000000002e-14
C146 s:99 0 2.6460000000000002e-14
C147 s:98 0 2.6460000000000002e-14
C148 s:97 0 2.6460000000000002e-14
C149 s:96 0 2.6460000000000002e-14
C150 s:95 0 2.6460000000000002e-14
C151 s:94 0 1.953e-14


* Net:d0 ----------------


R289 d0 d0:41 1.512
R290 d0 d0:3 0.522
R291 d0:3 d0:64 0.522
R292 d0:3 d0:40 1.494
R293 d0:40 d0:39 3.528
R294 d0:40 MN0@2:d 14
R295 d0:39 d0:38 3.528
R296 d0:39 MN0@2:d 14
R297 d0:38 d0:37 3.528
R298 d0:38 MN0@2:d 14
R299 d0:37 d0:36 3.528
R300 d0:37 MN0@2:d 14
R301 d0:36 d0:35 3.528
R302 d0:36 MN0@2:d 14
R303 d0:35 d0:11 2.604
R304 d0:35 MN0@2:d 14
R305 d0:64 d0:41 15.512
R306 d0:41 d0:2 0.672
R307 d0:41 MN0@2:d 14
R308 d0:2 d0:42 2.856
R309 d0:2 MN0@2:d 14
R310 d0:2 d0:7 2.828
R311 d0:2 MN0@2:d 14
R312 d0:2 d0:4 4.368
R313 d0:2 MN0@2:d 14
R314 d0:4 d0:56 2.856
R315 d0:4 MN0@4:d 14
R316 d0:4 d0:55 0.672
R317 d0:4 MN0@4:d 14
R318 d0:4 d0:15 1.008
R319 d0:4 MN0@4:d 14
R320 d0:55 d0:5 1.61
R321 d0:55 MN0@4:d 14
R322 d0:5 d0:54 1.918
R323 d0:5 MN0@4:d 14
R324 d0:54 d0:53 3.528
R325 d0:54 MN0@4:d 14
R326 d0:53 d0:52 3.528
R327 d0:53 MN0@4:d 14
R328 d0:52 d0:51 3.528
R329 d0:52 MN0@4:d 14
R330 d0:51 d0:50 3.528
R331 d0:51 MN0@4:d 14
R332 d0:50 d0:49 3.528
R333 d0:50 MN0@4:d 14
R334 d0:49 d0:13 2.604
R335 d0:49 MN0@4:d 14
R336 d0:56 d0:57 3.528
R337 d0:56 MN0@4:d 14
R338 d0:57 d0:58 3.528
R339 d0:57 MN0@4:d 14
R340 d0:58 d0:59 3.528
R341 d0:58 MN0@4:d 14
R342 d0:59 d0:60 3.528
R343 d0:59 MN0@4:d 14
R344 d0:60 d0:61 3.528
R345 d0:60 MN0@4:d 14
R346 d0:61 d0:62 3.528
R347 d0:61 MN0@4:d 14
R348 d0:62 d0:14 2.604
R349 d0:62 MN0@4:d 14
R350 d0:7 d0:20 1.008
R351 d0:7 d0:8 2.98
R352 d0:7 d0:0 1.54
R353 d0:0 d0:28 2.856
R354 d0:0 MN0@0:d 14
R355 d0:0 d0:27 0.672
R356 d0:0 MN0@0:d 14
R357 d0:0 d0:6 0.759
R358 d0:0 MN0@0:d 14
R359 d0:6 d0:18 2.198
R360 d0:27 d0:63 1.512
R361 d0:27 MN0@0:d 14
R362 d0:63 d0:1 14.946
R363 d0:1 d0:26 1.07
R364 d0:1 d0:16 0.647
R365 d0:1 d0:8 1.547
R366 d0:26 d0:25 3.528
R367 d0:26 MN0@0:d 14
R368 d0:25 d0:24 3.528
R369 d0:25 MN0@0:d 14
R370 d0:24 d0:23 3.528
R371 d0:24 MN0@0:d 14
R372 d0:23 d0:22 3.528
R373 d0:23 MN0@0:d 14
R374 d0:22 d0:21 3.528
R375 d0:22 MN0@0:d 14
R376 d0:21 d0:9 2.604
R377 d0:21 MN0@0:d 14
R378 d0:28 d0:29 3.528
R379 d0:28 MN0@0:d 14
R380 d0:29 d0:30 3.528
R381 d0:29 MN0@0:d 14
R382 d0:30 d0:31 3.528
R383 d0:30 MN0@0:d 14
R384 d0:31 d0:32 3.528
R385 d0:31 MN0@0:d 14
R386 d0:32 d0:33 3.528
R387 d0:32 MN0@0:d 14
R388 d0:33 d0:34 3.528
R389 d0:33 MN0@0:d 14
R390 d0:34 d0:10 2.604
R391 d0:34 MN0@0:d 14
R392 d0:42 d0:43 3.528
R393 d0:42 MN0@2:d 14
R394 d0:43 d0:44 3.528
R395 d0:43 MN0@2:d 14
R396 d0:44 d0:45 3.528
R397 d0:44 MN0@2:d 14
R398 d0:45 d0:46 3.528
R399 d0:45 MN0@2:d 14
R400 d0:46 d0:47 3.528
R401 d0:46 MN0@2:d 14
R402 d0:47 d0:48 3.528
R403 d0:47 MN0@2:d 14
R404 d0:48 d0:12 2.604
R405 d0:48 MN0@2:d 14
R406 MN0@0:d MN0@1:d 0.01
R407 MN0@2:d MN0@3:d 0.01
C152 d0:3 0 3.91245283018867e-15
C153 d0:3 0 1.1207547169811331e-14
C154 d0:40 0 2.6460000000000002e-14
C155 d0:39 0 2.6460000000000002e-14
C156 d0:38 0 2.6460000000000002e-14
C157 d0:37 0 2.6460000000000002e-14
C158 d0:36 0 2.6460000000000002e-14
C159 d0:35 0 1.953e-14
C160 d0:64 0 1.134e-14
C161 d0:41 0 5.04e-15
C162 d0:2 0 2.1420000000000002e-14
C163 d0:2 0 2.1210000000000002e-14
C164 d0:2 0 3.2760000000000004e-14
C165 d0:4 0 2.1420000000000002e-14
C166 d0:4 0 5.04e-15
C167 d0:4 0 7.56e-15
C168 d0:55 0 1.2073584905660379e-14
C169 d0:5 0 1.438641509433962e-14
C170 d0:54 0 2.6460000000000002e-14
C171 d0:53 0 2.6460000000000002e-14
C172 d0:52 0 2.6460000000000002e-14
C173 d0:51 0 2.6460000000000002e-14
C174 d0:50 0 2.6460000000000002e-14
C175 d0:49 0 1.953e-14
C176 d0:56 0 2.6460000000000002e-14
C177 d0:57 0 2.6460000000000002e-14
C178 d0:58 0 2.6460000000000002e-14
C179 d0:59 0 2.6460000000000002e-14
C180 d0:60 0 2.6460000000000002e-14
C181 d0:61 0 2.6460000000000002e-14
C182 d0:62 0 1.953e-14
C183 d0:7 0 7.56e-15
C184 d0:7 0 2.2350566037735843e-14
C185 d0:7 0 1.155e-14
C186 d0:0 0 2.1420000000000002e-14
C187 d0:0 0 5.04e-15
C188 d0:0 0 5.6921052631578956e-15
C189 d0:6 0 1.6486158762668835e-14
C190 d0:27 0 1.134e-14
C191 d0:63 0 7.0913207547169615e-15
C192 d0:1 0 8.028679245283039e-15
C193 d0:1 0 4.8526858784552584e-15
C194 d0:1 0 1.1604248839784307e-14
C195 d0:26 0 2.6460000000000002e-14
C196 d0:25 0 2.6460000000000002e-14
C197 d0:24 0 2.6460000000000002e-14
C198 d0:23 0 2.6460000000000002e-14
C199 d0:22 0 2.6460000000000002e-14
C200 d0:21 0 1.953e-14
C201 d0:28 0 2.6460000000000002e-14
C202 d0:29 0 2.6460000000000002e-14
C203 d0:30 0 2.6460000000000002e-14
C204 d0:31 0 2.6460000000000002e-14
C205 d0:32 0 2.6460000000000002e-14
C206 d0:33 0 2.6460000000000002e-14
C207 d0:34 0 1.953e-14
C208 d0:42 0 2.6460000000000002e-14
C209 d0:43 0 2.6460000000000002e-14
C210 d0:44 0 2.6460000000000002e-14
C211 d0:45 0 2.6460000000000002e-14
C212 d0:46 0 2.6460000000000002e-14
C213 d0:47 0 2.6460000000000002e-14
C214 d0:48 0 1.953e-14


* Net:g0 ----------------


R408 g0 g0:2 1.764
R409 g0 g0:1 0.448
R410 g0:1 g0:8 1.008
R411 g0:1 g0:7 1.008
R412 g0:1 g0:0 1.316
R413 g0:0 g0:4 1.12
R414 g0:0 MN0@0:g 342
R415 g0:0 MN0@1:g 342
R416 g0:0 MN0@2:g 342
R417 g0:0 MN0@3:g 342
R418 g0:0 MN0@4:g 342
R419 g0:0 g0:3 1.12
R420 g0:0 MN0@0:g 342
R421 g0:0 MN0@1:g 342
R422 g0:0 MN0@2:g 342
R423 g0:0 MN0@3:g 342
R424 g0:0 MN0@4:g 342
R425 g0:0 g0:6 4.144
R426 g0:0 MN0@0:g 342
R427 g0:0 MN0@1:g 342
R428 g0:0 MN0@2:g 342
R429 g0:0 MN0@3:g 342
R430 g0:0 MN0@4:g 342
R431 g0:2 g0:10 1.12
R432 g0:2 MN0@0:g 342
R433 g0:2 MN0@1:g 342
R434 g0:2 MN0@2:g 342
R435 g0:2 MN0@3:g 342
R436 g0:2 MN0@4:g 342
R437 g0:2 g0:9 1.12
R438 g0:2 MN0@0:g 342
R439 g0:2 MN0@1:g 342
R440 g0:2 MN0@2:g 342
R441 g0:2 MN0@3:g 342
R442 g0:2 MN0@4:g 342
R443 g0:2 g0:5 4.144
R444 g0:2 MN0@0:g 342
R445 g0:2 MN0@1:g 342
R446 g0:2 MN0@2:g 342
R447 g0:2 MN0@3:g 342
R448 g0:2 MN0@4:g 342
C215 g0:1 0 7.56e-15
C216 g0:1 0 7.56e-15
C217 g0:1 0 9.87e-15
C218 g0:0 0 8.400000000000001e-15
C219 g0:0 0 8.400000000000001e-15
C220 g0:0 0 3.108e-14
C221 g0:2 0 8.400000000000001e-15
C222 g0:2 0 8.400000000000001e-15
C223 g0:2 0 3.108e-14


* Net:d1 ----------------


R449 d1 d1:42 1.512
R450 d1 d1:41 2.016
R451 d1 d1:3 2.828
R452 d1 d1:9 4.368
R453 d1:9 d1:56 1.512
R454 d1:9 MN1@4:d 14
R455 d1:9 d1:55 2.016
R456 d1:9 MN1@4:d 14
R457 d1:9 d1:7 4.368
R458 d1:9 MN1@4:d 14
R459 d1:9 d1:21 1.008
R460 d1:9 MN1@4:d 14
R461 d1:7 d1:42 1.512
R462 d1:7 MN1@2:d 14
R463 d1:7 d1:41 2.016
R464 d1:7 MN1@2:d 14
R465 d1:7 d1:3 2.828
R466 d1:7 MN1@2:d 14
R467 d1:3 d1:2 2.184
R468 d1:3 d1:12 1.008
R469 d1:3 d1:5 1.54
R470 d1:5 d1:28 1.512
R471 d1:5 MN1@0:d 14
R472 d1:5 d1:27 2.016
R473 d1:5 MN1@0:d 14
R474 d1:5 d1:1 0.644
R475 d1:5 MN1@0:d 14
R476 d1:1 d1:0 2.184
R477 d1:1 d1:10 1.008
R478 d1:0 d1:11 1.008
R479 d1:0 d1:4 0.644
R480 d1:4 d1:29 2.856
R481 d1:4 MN1@0:d 14
R482 d1:4 d1:28 0.672
R483 d1:4 MN1@0:d 14
R484 d1:4 d1:2 1.54
R485 d1:4 MN1@0:d 14
R486 d1:2 d1:13 1.008
R487 d1:2 d1:6 2.828
R488 d1:6 d1:43 2.856
R489 d1:6 MN1@2:d 14
R490 d1:6 d1:42 0.672
R491 d1:6 MN1@2:d 14
R492 d1:6 d1:8 4.368
R493 d1:6 MN1@2:d 14
R494 d1:8 d1:57 2.856
R495 d1:8 MN1@4:d 14
R496 d1:8 d1:56 0.672
R497 d1:8 MN1@4:d 14
R498 d1:8 d1:20 1.008
R499 d1:8 MN1@4:d 14
R500 d1:57 d1:58 3.528
R501 d1:57 MN1@4:d 14
R502 d1:58 d1:59 3.528
R503 d1:58 MN1@4:d 14
R504 d1:59 d1:60 3.528
R505 d1:59 MN1@4:d 14
R506 d1:60 d1:61 3.528
R507 d1:60 MN1@4:d 14
R508 d1:61 d1:62 3.528
R509 d1:61 MN1@4:d 14
R510 d1:62 d1:63 3.528
R511 d1:62 MN1@4:d 14
R512 d1:63 d1:19 2.604
R513 d1:63 MN1@4:d 14
R514 d1:43 d1:44 3.528
R515 d1:43 MN1@2:d 14
R516 d1:44 d1:45 3.528
R517 d1:44 MN1@2:d 14
R518 d1:45 d1:46 3.528
R519 d1:45 MN1@2:d 14
R520 d1:46 d1:47 3.528
R521 d1:46 MN1@2:d 14
R522 d1:47 d1:48 3.528
R523 d1:47 MN1@2:d 14
R524 d1:48 d1:49 3.528
R525 d1:48 MN1@2:d 14
R526 d1:49 d1:17 2.604
R527 d1:49 MN1@2:d 14
R528 d1:29 d1:30 3.528
R529 d1:29 MN1@0:d 14
R530 d1:30 d1:31 3.528
R531 d1:30 MN1@0:d 14
R532 d1:31 d1:32 3.528
R533 d1:31 MN1@0:d 14
R534 d1:32 d1:33 3.528
R535 d1:32 MN1@0:d 14
R536 d1:33 d1:34 3.528
R537 d1:33 MN1@0:d 14
R538 d1:34 d1:35 3.528
R539 d1:34 MN1@0:d 14
R540 d1:35 d1:15 2.604
R541 d1:35 MN1@0:d 14
R542 d1:27 d1:26 3.528
R543 d1:27 MN1@0:d 14
R544 d1:26 d1:25 3.528
R545 d1:26 MN1@0:d 14
R546 d1:25 d1:24 3.528
R547 d1:25 MN1@0:d 14
R548 d1:24 d1:23 3.528
R549 d1:24 MN1@0:d 14
R550 d1:23 d1:22 3.528
R551 d1:23 MN1@0:d 14
R552 d1:22 d1:14 2.604
R553 d1:22 MN1@0:d 14
R554 d1:41 d1:40 3.528
R555 d1:41 MN1@2:d 14
R556 d1:40 d1:39 3.528
R557 d1:40 MN1@2:d 14
R558 d1:39 d1:38 3.528
R559 d1:39 MN1@2:d 14
R560 d1:38 d1:37 3.528
R561 d1:38 MN1@2:d 14
R562 d1:37 d1:36 3.528
R563 d1:37 MN1@2:d 14
R564 d1:36 d1:16 2.604
R565 d1:36 MN1@2:d 14
R566 d1:55 d1:54 3.528
R567 d1:55 MN1@4:d 14
R568 d1:54 d1:53 3.528
R569 d1:54 MN1@4:d 14
R570 d1:53 d1:52 3.528
R571 d1:53 MN1@4:d 14
R572 d1:52 d1:51 3.528
R573 d1:52 MN1@4:d 14
R574 d1:51 d1:50 3.528
R575 d1:51 MN1@4:d 14
R576 d1:50 d1:18 2.604
R577 d1:50 MN1@4:d 14
R578 MN1@0:d MN1@1:d 0.01
R579 MN1@2:d MN1@3:d 0.01
R580 MN1@4:d MN2@0:d 0.01
C224 d1:9 0 1.134e-14
C225 d1:9 0 1.512e-14
C226 d1:9 0 3.2760000000000004e-14
C227 d1:9 0 7.56e-15
C228 d1:7 0 1.134e-14
C229 d1:7 0 1.512e-14
C230 d1:7 0 2.1210000000000002e-14
C231 d1:3 0 1.6380000000000002e-14
C232 d1:3 0 7.56e-15
C233 d1:3 0 1.155e-14
C234 d1:5 0 1.134e-14
C235 d1:5 0 1.512e-14
C236 d1:5 0 4.83e-15
C237 d1:1 0 1.6380000000000002e-14
C238 d1:1 0 7.56e-15
C239 d1:0 0 7.56e-15
C240 d1:0 0 4.83e-15
C241 d1:4 0 2.1420000000000002e-14
C242 d1:4 0 5.04e-15
C243 d1:4 0 1.155e-14
C244 d1:2 0 7.56e-15
C245 d1:2 0 2.1210000000000002e-14
C246 d1:6 0 2.1420000000000002e-14
C247 d1:6 0 5.04e-15
C248 d1:6 0 3.2760000000000004e-14
C249 d1:8 0 2.1420000000000002e-14
C250 d1:8 0 5.04e-15
C251 d1:8 0 7.56e-15
C252 d1:57 0 2.6460000000000002e-14
C253 d1:58 0 2.6460000000000002e-14
C254 d1:59 0 2.6460000000000002e-14
C255 d1:60 0 2.6460000000000002e-14
C256 d1:61 0 2.6460000000000002e-14
C257 d1:62 0 2.6460000000000002e-14
C258 d1:63 0 1.953e-14
C259 d1:43 0 2.6460000000000002e-14
C260 d1:44 0 2.6460000000000002e-14
C261 d1:45 0 2.6460000000000002e-14
C262 d1:46 0 2.6460000000000002e-14
C263 d1:47 0 2.6460000000000002e-14
C264 d1:48 0 2.6460000000000002e-14
C265 d1:49 0 1.953e-14
C266 d1:29 0 2.6460000000000002e-14
C267 d1:30 0 2.6460000000000002e-14
C268 d1:31 0 2.6460000000000002e-14
C269 d1:32 0 2.6460000000000002e-14
C270 d1:33 0 2.6460000000000002e-14
C271 d1:34 0 2.6460000000000002e-14
C272 d1:35 0 1.953e-14
C273 d1:27 0 2.6460000000000002e-14
C274 d1:26 0 2.6460000000000002e-14
C275 d1:25 0 2.6460000000000002e-14
C276 d1:24 0 2.6460000000000002e-14
C277 d1:23 0 2.6460000000000002e-14
C278 d1:22 0 1.953e-14
C279 d1:41 0 2.6460000000000002e-14
C280 d1:40 0 2.6460000000000002e-14
C281 d1:39 0 2.6460000000000002e-14
C282 d1:38 0 2.6460000000000002e-14
C283 d1:37 0 2.6460000000000002e-14
C284 d1:36 0 1.953e-14
C285 d1:55 0 2.6460000000000002e-14
C286 d1:54 0 2.6460000000000002e-14
C287 d1:53 0 2.6460000000000002e-14
C288 d1:52 0 2.6460000000000002e-14
C289 d1:51 0 2.6460000000000002e-14
C290 d1:50 0 1.953e-14


* Net:g1 ----------------


R581 g1 g1:0 1.764
R582 g1 g1:2 0.448
R583 g1:2 g1:8 1.008
R584 g1:2 g1:7 1.008
R585 g1:2 g1:1 1.316
R586 g1:1 g1:6 1.12
R587 g1:1 MN1@0:g 342
R588 g1:1 MN1@1:g 342
R589 g1:1 MN1@2:g 342
R590 g1:1 MN1@3:g 342
R591 g1:1 MN1@4:g 342
R592 g1:1 g1:5 1.12
R593 g1:1 MN1@0:g 342
R594 g1:1 MN1@1:g 342
R595 g1:1 MN1@2:g 342
R596 g1:1 MN1@3:g 342
R597 g1:1 MN1@4:g 342
R598 g1:1 g1:10 4.144
R599 g1:1 MN1@0:g 342
R600 g1:1 MN1@1:g 342
R601 g1:1 MN1@2:g 342
R602 g1:1 MN1@3:g 342
R603 g1:1 MN1@4:g 342
R604 g1:0 g1:4 1.12
R605 g1:0 MN1@0:g 342
R606 g1:0 MN1@1:g 342
R607 g1:0 MN1@2:g 342
R608 g1:0 MN1@3:g 342
R609 g1:0 MN1@4:g 342
R610 g1:0 g1:3 1.12
R611 g1:0 MN1@0:g 342
R612 g1:0 MN1@1:g 342
R613 g1:0 MN1@2:g 342
R614 g1:0 MN1@3:g 342
R615 g1:0 MN1@4:g 342
R616 g1:0 g1:9 4.144
R617 g1:0 MN1@0:g 342
R618 g1:0 MN1@1:g 342
R619 g1:0 MN1@2:g 342
R620 g1:0 MN1@3:g 342
R621 g1:0 MN1@4:g 342
C291 g1:2 0 7.56e-15
C292 g1:2 0 7.56e-15
C293 g1:2 0 9.87e-15
C294 g1:1 0 8.400000000000001e-15
C295 g1:1 0 8.400000000000001e-15
C296 g1:1 0 3.108e-14
C297 g1:0 0 8.400000000000001e-15
C298 g1:0 0 8.400000000000001e-15
C299 g1:0 0 3.108e-14


xMN0@0 MN0@0:d MN0@0:g MN0@0:s MN0@0:b nfet m=1 l=1.4e-08 nfin=38 nf=1 par=1 par_nf=1 asej=2.26e-14 adej=2.26e-14 psej=4.52e-06 pdej=4.52e-06 pdevdops=1 pdevlgeos=1 pdevwgeos=1psw_acv_sign=1 plnest=1 pldist=1 plorient=0 cpp=7.8e-08 fpitch=4.8e-08 xpos=-99 ypos=-99 ptwell=0sca=0 scb=0 scc=0 pre_layout_local=-1 ngcon=1 p_vta=0 p_la=0 u0mult_fet=1 lle_sa=71e-9 lle_sb=71e-9lle_rxrxa=78e-9 lle_rxrxb=78e-9 lle_rxrxn=192e-9 lle_rxrxs=192e-9 lle_pcrxn=55e-9 lle_pcrxs=55e-9lle_nwa=2e-6 lle_nwb=2e-6 lle_nwn=192e-9 lle_nws=192e-9 lle_ctne=0 lle_ctnw=0 lle_ctse=0 lle_ctsw=0lle_sctne=0 lle_sctnw=0 lle_sctse=0 lle_sctsw=0 lrsd=27e-9 dtemp=0 l_shape=0 l_shape_s=0 nsig_dop1=0nsig_dop2=0 nsig_dibl=0 nsig_pc=0 nsig_rx=0 fc_index=0 fc_sigma=3 analog=-1 nf_pex=1
xMN0@1 MN0@1:d MN0@1:g MN0@1:s MN0@1:b nfet m=1 l=1.4e-08 nfin=38 nf=1 par=1 par_nf=1 asej=2.26e-14 adej=2.26e-14 psej=4.52e-06 pdej=4.52e-06 pdevdops=1 pdevlgeos=1 pdevwgeos=1psw_acv_sign=1 plnest=1 pldist=1 plorient=0 cpp=7.8e-08 fpitch=4.8e-08 xpos=-99 ypos=-99 ptwell=0sca=0 scb=0 scc=0 pre_layout_local=-1 ngcon=1 p_vta=0 p_la=0 u0mult_fet=1 lle_sa=71e-9 lle_sb=71e-9lle_rxrxa=78e-9 lle_rxrxb=78e-9 lle_rxrxn=192e-9 lle_rxrxs=192e-9 lle_pcrxn=55e-9 lle_pcrxs=55e-9lle_nwa=2e-6 lle_nwb=2e-6 lle_nwn=192e-9 lle_nws=192e-9 lle_ctne=0 lle_ctnw=0 lle_ctse=0 lle_ctsw=0lle_sctne=0 lle_sctnw=0 lle_sctse=0 lle_sctsw=0 lrsd=27e-9 dtemp=0 l_shape=0 l_shape_s=0 nsig_dop1=0nsig_dop2=0 nsig_dibl=0 nsig_pc=0 nsig_rx=0 fc_index=0 fc_sigma=3 analog=-1 nf_pex=1
xMN0@2 MN0@2:d MN0@2:g MN0@2:s MN0@2:b nfet m=1 l=1.4e-08 nfin=38 nf=1 par=1 par_nf=1 asej=2.26e-14 adej=2.26e-14 psej=4.52e-06 pdej=4.52e-06 pdevdops=1 pdevlgeos=1 pdevwgeos=1psw_acv_sign=1 plnest=1 pldist=1 plorient=0 cpp=7.8e-08 fpitch=4.8e-08 xpos=-99 ypos=-99 ptwell=0sca=0 scb=0 scc=0 pre_layout_local=-1 ngcon=1 p_vta=0 p_la=0 u0mult_fet=1 lle_sa=71e-9 lle_sb=71e-9lle_rxrxa=78e-9 lle_rxrxb=78e-9 lle_rxrxn=192e-9 lle_rxrxs=192e-9 lle_pcrxn=55e-9 lle_pcrxs=55e-9lle_nwa=2e-6 lle_nwb=2e-6 lle_nwn=192e-9 lle_nws=192e-9 lle_ctne=0 lle_ctnw=0 lle_ctse=0 lle_ctsw=0lle_sctne=0 lle_sctnw=0 lle_sctse=0 lle_sctsw=0 lrsd=27e-9 dtemp=0 l_shape=0 l_shape_s=0 nsig_dop1=0nsig_dop2=0 nsig_dibl=0 nsig_pc=0 nsig_rx=0 fc_index=0 fc_sigma=3 analog=-1 nf_pex=1
xMN0@3 MN0@3:d MN0@3:g MN0@3:s MN0@3:b nfet m=1 l=1.4e-08 nfin=38 nf=1 par=1 par_nf=1 asej=2.26e-14 adej=2.26e-14 psej=4.52e-06 pdej=4.52e-06 pdevdops=1 pdevlgeos=1 pdevwgeos=1psw_acv_sign=1 plnest=1 pldist=1 plorient=0 cpp=7.8e-08 fpitch=4.8e-08 xpos=-99 ypos=-99 ptwell=0sca=0 scb=0 scc=0 pre_layout_local=-1 ngcon=1 p_vta=0 p_la=0 u0mult_fet=1 lle_sa=71e-9 lle_sb=71e-9lle_rxrxa=78e-9 lle_rxrxb=78e-9 lle_rxrxn=192e-9 lle_rxrxs=192e-9 lle_pcrxn=55e-9 lle_pcrxs=55e-9lle_nwa=2e-6 lle_nwb=2e-6 lle_nwn=192e-9 lle_nws=192e-9 lle_ctne=0 lle_ctnw=0 lle_ctse=0 lle_ctsw=0lle_sctne=0 lle_sctnw=0 lle_sctse=0 lle_sctsw=0 lrsd=27e-9 dtemp=0 l_shape=0 l_shape_s=0 nsig_dop1=0nsig_dop2=0 nsig_dibl=0 nsig_pc=0 nsig_rx=0 fc_index=0 fc_sigma=3 analog=-1 nf_pex=1
xMN0@4 MN0@4:d MN0@4:g MN0@4:s MN0@4:b nfet m=1 l=1.4e-08 nfin=38 nf=1 par=1 par_nf=1 asej=2.26e-14 adej=2.26e-14 psej=4.52e-06 pdej=4.52e-06 pdevdops=1 pdevlgeos=1 pdevwgeos=1psw_acv_sign=1 plnest=1 pldist=1 plorient=0 cpp=7.8e-08 fpitch=4.8e-08 xpos=-99 ypos=-99 ptwell=0sca=0 scb=0 scc=0 pre_layout_local=-1 ngcon=1 p_vta=0 p_la=0 u0mult_fet=1 lle_sa=71e-9 lle_sb=71e-9lle_rxrxa=78e-9 lle_rxrxb=78e-9 lle_rxrxn=192e-9 lle_rxrxs=192e-9 lle_pcrxn=55e-9 lle_pcrxs=55e-9lle_nwa=2e-6 lle_nwb=2e-6 lle_nwn=192e-9 lle_nws=192e-9 lle_ctne=0 lle_ctnw=0 lle_ctse=0 lle_ctsw=0lle_sctne=0 lle_sctnw=0 lle_sctse=0 lle_sctsw=0 lrsd=27e-9 dtemp=0 l_shape=0 l_shape_s=0 nsig_dop1=0nsig_dop2=0 nsig_dibl=0 nsig_pc=0 nsig_rx=0 fc_index=0 fc_sigma=3 analog=-1 nf_pex=1
xMN1@0 MN1@0:d MN1@0:g MN1@0:s MN1@0:b nfet m=1 l=1.4e-08 nfin=38 nf=1 par=1 par_nf=1 asej=2.26e-14 adej=2.26e-14 psej=4.52e-06 pdej=4.52e-06 pdevdops=1 pdevlgeos=1 pdevwgeos=1psw_acv_sign=1 plnest=1 pldist=1 plorient=0 cpp=7.8e-08 fpitch=4.8e-08 xpos=-99 ypos=-99 ptwell=0sca=0 scb=0 scc=0 pre_layout_local=-1 ngcon=1 p_vta=0 p_la=0 u0mult_fet=1 lle_sa=71e-9 lle_sb=71e-9lle_rxrxa=78e-9 lle_rxrxb=78e-9 lle_rxrxn=192e-9 lle_rxrxs=192e-9 lle_pcrxn=55e-9 lle_pcrxs=55e-9lle_nwa=2e-6 lle_nwb=2e-6 lle_nwn=192e-9 lle_nws=192e-9 lle_ctne=0 lle_ctnw=0 lle_ctse=0 lle_ctsw=0lle_sctne=0 lle_sctnw=0 lle_sctse=0 lle_sctsw=0 lrsd=27e-9 dtemp=0 l_shape=0 l_shape_s=0 nsig_dop1=0nsig_dop2=0 nsig_dibl=0 nsig_pc=0 nsig_rx=0 fc_index=0 fc_sigma=3 analog=-1 nf_pex=1
xMN1@1 MN1@1:d MN1@1:g MN1@1:s MN1@1:b nfet m=1 l=1.4e-08 nfin=38 nf=1 par=1 par_nf=1 asej=2.26e-14 adej=2.26e-14 psej=4.52e-06 pdej=4.52e-06 pdevdops=1 pdevlgeos=1 pdevwgeos=1psw_acv_sign=1 plnest=1 pldist=1 plorient=0 cpp=7.8e-08 fpitch=4.8e-08 xpos=-99 ypos=-99 ptwell=0sca=0 scb=0 scc=0 pre_layout_local=-1 ngcon=1 p_vta=0 p_la=0 u0mult_fet=1 lle_sa=71e-9 lle_sb=71e-9lle_rxrxa=78e-9 lle_rxrxb=78e-9 lle_rxrxn=192e-9 lle_rxrxs=192e-9 lle_pcrxn=55e-9 lle_pcrxs=55e-9lle_nwa=2e-6 lle_nwb=2e-6 lle_nwn=192e-9 lle_nws=192e-9 lle_ctne=0 lle_ctnw=0 lle_ctse=0 lle_ctsw=0lle_sctne=0 lle_sctnw=0 lle_sctse=0 lle_sctsw=0 lrsd=27e-9 dtemp=0 l_shape=0 l_shape_s=0 nsig_dop1=0nsig_dop2=0 nsig_dibl=0 nsig_pc=0 nsig_rx=0 fc_index=0 fc_sigma=3 analog=-1 nf_pex=1
xMN1@2 MN1@2:d MN1@2:g MN1@2:s MN1@2:b nfet m=1 l=1.4e-08 nfin=38 nf=1 par=1 par_nf=1 asej=2.26e-14 adej=2.26e-14 psej=4.52e-06 pdej=4.52e-06 pdevdops=1 pdevlgeos=1 pdevwgeos=1psw_acv_sign=1 plnest=1 pldist=1 plorient=0 cpp=7.8e-08 fpitch=4.8e-08 xpos=-99 ypos=-99 ptwell=0sca=0 scb=0 scc=0 pre_layout_local=-1 ngcon=1 p_vta=0 p_la=0 u0mult_fet=1 lle_sa=71e-9 lle_sb=71e-9lle_rxrxa=78e-9 lle_rxrxb=78e-9 lle_rxrxn=192e-9 lle_rxrxs=192e-9 lle_pcrxn=55e-9 lle_pcrxs=55e-9lle_nwa=2e-6 lle_nwb=2e-6 lle_nwn=192e-9 lle_nws=192e-9 lle_ctne=0 lle_ctnw=0 lle_ctse=0 lle_ctsw=0lle_sctne=0 lle_sctnw=0 lle_sctse=0 lle_sctsw=0 lrsd=27e-9 dtemp=0 l_shape=0 l_shape_s=0 nsig_dop1=0nsig_dop2=0 nsig_dibl=0 nsig_pc=0 nsig_rx=0 fc_index=0 fc_sigma=3 analog=-1 nf_pex=1
xMN1@3 MN1@3:d MN1@3:g MN1@3:s MN1@3:b nfet m=1 l=1.4e-08 nfin=38 nf=1 par=1 par_nf=1 asej=2.26e-14 adej=2.26e-14 psej=4.52e-06 pdej=4.52e-06 pdevdops=1 pdevlgeos=1 pdevwgeos=1psw_acv_sign=1 plnest=1 pldist=1 plorient=0 cpp=7.8e-08 fpitch=4.8e-08 xpos=-99 ypos=-99 ptwell=0sca=0 scb=0 scc=0 pre_layout_local=-1 ngcon=1 p_vta=0 p_la=0 u0mult_fet=1 lle_sa=71e-9 lle_sb=71e-9lle_rxrxa=78e-9 lle_rxrxb=78e-9 lle_rxrxn=192e-9 lle_rxrxs=192e-9 lle_pcrxn=55e-9 lle_pcrxs=55e-9lle_nwa=2e-6 lle_nwb=2e-6 lle_nwn=192e-9 lle_nws=192e-9 lle_ctne=0 lle_ctnw=0 lle_ctse=0 lle_ctsw=0lle_sctne=0 lle_sctnw=0 lle_sctse=0 lle_sctsw=0 lrsd=27e-9 dtemp=0 l_shape=0 l_shape_s=0 nsig_dop1=0nsig_dop2=0 nsig_dibl=0 nsig_pc=0 nsig_rx=0 fc_index=0 fc_sigma=3 analog=-1 nf_pex=1