*|DSPF	1.5
*|DESIGN	nmos_cm_15x5x1_111_3
*|DATE	"Wed Jun 19 2025"
*|VENDOR	"Mentor Graphics Corporation"
*|PROGRAM	"Calibre xACT"
*|VERSION	"v2020.4_34.17"
*|DIVIDER	|
*|DELIMITER	:
*|BUSBIT	[]
* Corner Name: 12lp_11M_3Mx_4Cx_2Kx_2Gx_LB_nominal_detailed_25
* Nominal Temperature: 25C
* Circuit Temperature: 25C
*

* Integrated TICER reduction is not enabled.
* SHORT DELAY THRESHOLD: 2e-14
* Fill Mode: NG
* PEX REDUCE CC ABSOLUTE : disabled
* PEX REDUCE CC RATIO : disabled
* Delta transform mode : 344834

.subckt nmos_cm_15x5x1_111_3 d0 d1 s

* Net:s ----------------


R1 s s:20 17.248
R2 s s:66 1.008
R3 s s:9 7.644
R4 s s:11 5.46
R5 s:11 s:96 1.344
R6 s:11 MN1@2:s 14
R7 s:11 s:95 2.184
R8 s:11 MN1@2:s 14
R9 s:11 s:21 5.46
R10 s:11 MN1@2:s 14
R11 s:11 s:13 13.104
R12 s:11 MN1@2:s 14
R13 s:13 s:101 1.344
R14 s:13 MN0@3:s 14
R15 s:13 s:100 2.184
R16 s:13 MN0@3:s 14
R17 s:13 s:15 13.104
R18 s:13 MN0@3:s 14
R19 s:15 s:106 1.344
R20 s:15 MN1@3:s 14
R21 s:15 s:105 2.184
R22 s:15 MN1@3:s 14
R23 s:15 s:17 13.104
R24 s:15 MN1@3:s 14
R25 s:17 s:111 1.344
R26 s:17 MN0@4:s 14
R27 s:17 s:110 2.184
R28 s:17 MN0@4:s 14
R29 s:17 s:19 13.104
R30 s:17 MN0@4:s 14
R31 s:19 s:116 1.344
R32 s:19 MN1@4:s 14
R33 s:19 s:115 2.184
R34 s:19 MN1@4:s 14
R35 s:19 s:65 3.192
R36 s:19 MN1@4:s 14
R37 s:115 s:114 3.528
R38 s:115 MN1@4:s 14
R39 s:114 s:113 3.528
R40 s:114 MN1@4:s 14
R41 s:113 s:60 3.024
R42 s:113 MN1@4:s 14
R43 s:116 s:117 3.528
R44 s:116 MN1@4:s 14
R45 s:117 s:61 3.024
R46 s:117 MN1@4:s 14
R47 s:110 s:109 3.528
R48 s:110 MN0@4:s 14
R49 s:109 s:108 3.528
R50 s:109 MN0@4:s 14
R51 s:108 s:56 3.024
R52 s:108 MN0@4:s 14
R53 s:111 s:112 3.528
R54 s:111 MN0@4:s 14
R55 s:112 s:57 3.024
R56 s:112 MN0@4:s 14
R57 s:105 s:104 3.528
R58 s:105 MN1@3:s 14
R59 s:104 s:103 3.528
R60 s:104 MN1@3:s 14
R61 s:103 s:52 3.024
R62 s:103 MN1@3:s 14
R63 s:106 s:107 3.528
R64 s:106 MN1@3:s 14
R65 s:107 s:53 3.024
R66 s:107 MN1@3:s 14
R67 s:100 s:99 3.528
R68 s:100 MN0@3:s 14
R69 s:99 s:98 3.528
R70 s:99 MN0@3:s 14
R71 s:98 s:48 3.024
R72 s:98 MN0@3:s 14
R73 s:101 s:102 3.528
R74 s:101 MN0@3:s 14
R75 s:102 s:49 3.024
R76 s:102 MN0@3:s 14
R77 s:21 s:20 17.248
R78 s:21 s:66 1.008
R79 s:21 s:9 7.644
R80 s:9 s:91 1.344
R81 s:9 MN0@2:s 14
R82 s:9 s:90 2.184
R83 s:9 MN0@2:s 14
R84 s:9 s:7 13.104
R85 s:9 MN0@2:s 14
R86 s:7 s:86 1.344
R87 s:7 MN1@1:s 14
R88 s:7 s:85 2.184
R89 s:7 MN1@1:s 14
R90 s:7 s:5 13.104
R91 s:7 MN1@1:s 14
R92 s:5 s:81 1.344
R93 s:5 MN0@1:s 14
R94 s:5 s:80 2.184
R95 s:5 MN0@1:s 14
R96 s:5 s:3 13.104
R97 s:5 MN0@1:s 14
R98 s:3 s:76 1.344
R99 s:3 MN1@0:s 14
R100 s:3 s:75 2.184
R101 s:3 MN1@0:s 14
R102 s:3 s:1 13.104
R103 s:3 MN1@0:s 14
R104 s:1 s:71 1.344
R105 s:1 MN0@0:s 14
R106 s:1 s:70 2.184
R107 s:1 MN0@0:s 14
R108 s:1 s:64 1.008
R109 s:1 MN0@0:s 14
R110 s:70 s:69 3.528
R111 s:70 MN0@0:s 14
R112 s:69 s:68 3.528
R113 s:69 MN0@0:s 14
R114 s:68 s:24 3.024
R115 s:68 MN0@0:s 14
R116 s:71 s:72 3.528
R117 s:71 MN0@0:s 14
R118 s:72 s:25 3.024
R119 s:72 MN0@0:s 14
R120 s:75 s:74 3.528
R121 s:75 MN1@0:s 14
R122 s:74 s:73 3.528
R123 s:74 MN1@0:s 14
R124 s:73 s:28 3.024
R125 s:73 MN1@0:s 14
R126 s:76 s:77 3.528
R127 s:76 MN1@0:s 14
R128 s:77 s:29 3.024
R129 s:77 MN1@0:s 14
R130 s:80 s:79 3.528
R131 s:80 MN0@1:s 14
R132 s:79 s:78 3.528
R133 s:79 MN0@1:s 14
R134 s:78 s:32 3.024
R135 s:78 MN0@1:s 14
R136 s:81 s:82 3.528
R137 s:81 MN0@1:s 14
R138 s:82 s:33 3.024
R139 s:82 MN0@1:s 14
R140 s:85 s:84 3.528
R141 s:85 MN1@1:s 14
R142 s:84 s:83 3.528
R143 s:84 MN1@1:s 14
R144 s:83 s:36 3.024
R145 s:83 MN1@1:s 14
R146 s:86 s:87 3.528
R147 s:86 MN1@1:s 14
R148 s:87 s:37 3.024
R149 s:87 MN1@1:s 14
R150 s:90 s:89 3.528
R151 s:90 MN0@2:s 14
R152 s:89 s:88 3.528
R153 s:89 MN0@2:s 14
R154 s:88 s:40 3.024
R155 s:88 MN0@2:s 14
R156 s:91 s:92 3.528
R157 s:91 MN0@2:s 14
R158 s:92 s:41 3.024
R159 s:92 MN0@2:s 14
R160 s:20 s:67 1.008
R161 s:20 s:8 6.552
R162 s:20 s:10 6.552
R163 s:10 s:43 1.12
R164 s:10 MN1@2:b 14
R165 s:10 s:42 1.12
R166 s:10 MN1@2:b 14
R167 s:10 s:12 13.104
R168 s:10 MN1@2:b 14
R169 s:12 s:47 1.12
R170 s:12 MN0@3:b 14
R171 s:12 s:46 1.12
R172 s:12 MN0@3:b 14
R173 s:12 s:14 13.104
R174 s:12 MN0@3:b 14
R175 s:14 s:51 1.12
R176 s:14 MN1@3:b 14
R177 s:14 s:50 1.12
R178 s:14 MN1@3:b 14
R179 s:14 s:16 13.104
R180 s:14 MN1@3:b 14
R181 s:16 s:55 1.12
R182 s:16 MN0@4:b 14
R183 s:16 s:54 1.12
R184 s:16 MN0@4:b 14
R185 s:16 s:18 13.104
R186 s:16 MN0@4:b 14
R187 s:18 s:59 1.12
R188 s:18 MN1@4:b 14
R189 s:18 s:58 1.12
R190 s:18 MN1@4:b 14
R191 s:18 s:63 2.1
R192 s:18 MN1@4:b 14
R193 s:8 s:39 1.12
R194 s:8 MN0@2:b 14
R195 s:8 s:38 1.12
R196 s:8 MN0@2:b 14
R197 s:8 s:6 13.104
R198 s:8 MN0@2:b 14
R199 s:6 s:35 1.12
R200 s:6 MN1@1:b 14
R201 s:6 s:34 1.12
R202 s:6 MN1@1:b 14
R203 s:6 s:4 13.104
R204 s:6 MN1@1:b 14
R205 s:4 s:31 1.12
R206 s:4 MN0@1:b 14
R207 s:4 s:30 1.12
R208 s:4 MN0@1:b 14
R209 s:4 s:2 13.104
R210 s:4 MN0@1:b 14
R211 s:2 s:27 1.12
R212 s:2 MN1@0:b 14
R213 s:2 s:26 1.12
R214 s:2 MN1@0:b 14
R215 s:2 s:0 13.104
R216 s:2 MN1@0:b 14
R217 s:0 s:23 1.12
R218 s:0 MN0@0:b 14
R219 s:0 s:22 1.12
R220 s:0 MN0@0:b 14
R221 s:0 s:62 2.1
R222 s:0 MN0@0:b 14
R223 s:95 s:94 3.528
R224 s:95 MN1@2:s 14
R225 s:94 s:93 3.528
R226 s:94 MN1@2:s 14
R227 s:93 s:44 3.024
R228 s:93 MN1@2:s 14
R229 s:96 s:97 3.528
R230 s:96 MN1@2:s 14
R231 s:97 s:45 3.024
R232 s:97 MN1@2:s 14
R233 MN1@4:s MN2@0:s 0.01
C1 s:11 0 1.008e-14
C2 s:11 0 1.6380000000000002e-14
C3 s:11 0 4.0950000000000005e-14
C4 s:11 0 9.828e-14
C5 s:13 0 1.008e-14
C6 s:13 0 1.6380000000000002e-14
C7 s:13 0 9.828e-14
C8 s:15 0 1.008e-14
C9 s:15 0 1.6380000000000002e-14
C10 s:15 0 9.828e-14
C11 s:17 0 1.008e-14
C12 s:17 0 1.6380000000000002e-14
C13 s:17 0 9.828e-14
C14 s:19 0 1.008e-14
C15 s:19 0 1.6380000000000002e-14
C16 s:19 0 2.394e-14
C17 s:115 0 2.6460000000000002e-14
C18 s:114 0 2.6460000000000002e-14
C19 s:113 0 2.268e-14
C20 s:116 0 2.6460000000000002e-14
C21 s:117 0 2.268e-14
C22 s:110 0 2.6460000000000002e-14
C23 s:109 0 2.6460000000000002e-14
C24 s:108 0 2.268e-14
C25 s:111 0 2.6460000000000002e-14
C26 s:112 0 2.268e-14
C27 s:105 0 2.6460000000000002e-14
C28 s:104 0 2.6460000000000002e-14
C29 s:103 0 2.268e-14
C30 s:106 0 2.6460000000000002e-14
C31 s:107 0 2.268e-14
C32 s:100 0 2.6460000000000002e-14
C33 s:99 0 2.6460000000000002e-14
C34 s:98 0 2.268e-14
C35 s:101 0 2.6460000000000002e-14
C36 s:102 0 2.268e-14
C37 s:21 0 1.2936000000000002e-13
C38 s:21 0 7.56e-15
C39 s:21 0 5.733000000000001e-14
C40 s:9 0 1.008e-14
C41 s:9 0 1.6380000000000002e-14
C42 s:9 0 9.828e-14
C43 s:7 0 1.008e-14
C44 s:7 0 1.6380000000000002e-14
C45 s:7 0 9.828e-14
C46 s:5 0 1.008e-14
C47 s:5 0 1.6380000000000002e-14
C48 s:5 0 9.828e-14
C49 s:3 0 1.008e-14
C50 s:3 0 1.6380000000000002e-14
C51 s:3 0 9.828e-14
C52 s:1 0 1.008e-14
C53 s:1 0 1.6380000000000002e-14
C54 s:1 0 7.56e-15
C55 s:70 0 2.6460000000000002e-14
C56 s:69 0 2.6460000000000002e-14
C57 s:68 0 2.268e-14
C58 s:71 0 2.6460000000000002e-14
C59 s:72 0 2.268e-14
C60 s:75 0 2.6460000000000002e-14
C61 s:74 0 2.6460000000000002e-14
C62 s:73 0 2.268e-14
C63 s:76 0 2.6460000000000002e-14
C64 s:77 0 2.268e-14
C65 s:80 0 2.6460000000000002e-14
C66 s:79 0 2.6460000000000002e-14
C67 s:78 0 2.268e-14
C68 s:81 0 2.6460000000000002e-14
C69 s:82 0 2.268e-14
C70 s:85 0 2.6460000000000002e-14
C71 s:84 0 2.6460000000000002e-14
C72 s:83 0 2.268e-14
C73 s:86 0 2.6460000000000002e-14
C74 s:87 0 2.268e-14
C75 s:90 0 2.6460000000000002e-14
C76 s:89 0 2.6460000000000002e-14
C77 s:88 0 2.268e-14
C78 s:91 0 2.6460000000000002e-14
C79 s:92 0 2.268e-14
C80 s:20 0 7.56e-15
C81 s:20 0 4.914e-14
C82 s:20 0 4.914e-14
C83 s:10 0 8.400000000000001e-15
C84 s:10 0 8.400000000000001e-15
C85 s:10 0 9.828e-14
C86 s:12 0 8.400000000000001e-15
C87 s:12 0 8.400000000000001e-15
C88 s:12 0 9.828e-14
C89 s:14 0 8.400000000000001e-15
C90 s:14 0 8.400000000000001e-15
C91 s:14 0 9.828e-14
C92 s:16 0 8.400000000000001e-15
C93 s:16 0 8.400000000000001e-15
C94 s:16 0 9.828e-14
C95 s:18 0 8.400000000000001e-15
C96 s:18 0 8.400000000000001e-15
C97 s:18 0 1.5750000000000002e-14
C98 s:8 0 8.400000000000001e-15
C99 s:8 0 8.400000000000001e-15
C100 s:8 0 9.828e-14
C101 s:6 0 8.400000000000001e-15
C102 s:6 0 8.400000000000001e-15
C103 s:6 0 9.828e-14
C104 s:4 0 8.400000000000001e-15
C105 s:4 0 8.400000000000001e-15
C106 s:4 0 9.828e-14
C107 s:2 0 8.400000000000001e-15
C108 s:2 0 8.400000000000001e-15
C109 s:2 0 9.828e-14
C110 s:0 0 8.400000000000001e-15
C111 s:0 0 8.400000000000001e-15
C112 s:0 0 1.5750000000000002e-14
C113 s:95 0 2.6460000000000002e-14
C114 s:94 0 2.6460000000000002e-14
C115 s:93 0 2.268e-14
C116 s:96 0 2.6460000000000002e-14
C117 s:97 0 2.268e-14


* Net:d1 ----------------


R234 d1 d1:4 5.46
R235 d1 d1:3 2.184
R236 d1:3 d1:15 1.008
R237 d1:3 d1:14 1.008
R238 d1:3 d1:5 18.564
R239 d1:5 d1:34 3.528
R240 d1:5 MN0@3:d 14
R241 d1:5 d1:33 3.528
R242 d1:5 MN0@3:d 14
R243 d1:5 d1:1 26.208
R244 d1:5 MN0@3:d 14
R245 d1:1 d1:38 3.528
R246 d1:1 MN0@4:d 14
R247 d1:1 d1:37 3.528
R248 d1:1 MN0@4:d 14
R249 d1:1 d1:13 14.112
R250 d1:1 MN0@4:d 14
R251 d1:37 d1:36 3.528
R252 d1:37 MN0@4:d 14
R253 d1:36 d1:8 3.024
R254 d1:36 MN0@4:d 14
R255 d1:38 d1:39 3.528
R256 d1:38 MN0@4:d 14
R257 d1:39 d1:9 3.024
R258 d1:39 MN0@4:d 14
R259 d1:33 d1:32 3.528
R260 d1:33 MN0@3:d 14
R261 d1:32 d1:18 3.024
R262 d1:32 MN0@3:d 14
R263 d1:34 d1:35 3.528
R264 d1:34 MN0@3:d 14
R265 d1:35 d1:19 3.024
R266 d1:35 MN0@3:d 14
R267 d1:4 d1:30 3.528
R268 d1:4 MN0@2:d 14
R269 d1:4 d1:29 3.528
R270 d1:4 MN0@2:d 14
R271 d1:4 d1:2 26.208
R272 d1:4 MN0@2:d 14
R273 d1:2 d1:26 3.528
R274 d1:2 MN0@1:d 14
R275 d1:2 d1:25 3.528
R276 d1:2 MN0@1:d 14
R277 d1:2 d1:0 26.208
R278 d1:2 MN0@1:d 14
R279 d1:0 d1:22 3.528
R280 d1:0 MN0@0:d 14
R281 d1:0 d1:21 3.528
R282 d1:0 MN0@0:d 14
R283 d1:0 d1:12 3.192
R284 d1:0 MN0@0:d 14
R285 d1:21 d1:20 3.528
R286 d1:21 MN0@0:d 14
R287 d1:20 d1:6 3.024
R288 d1:20 MN0@0:d 14
R289 d1:22 d1:23 3.528
R290 d1:22 MN0@0:d 14
R291 d1:23 d1:7 3.024
R292 d1:23 MN0@0:d 14
R293 d1:25 d1:24 3.528
R294 d1:25 MN0@1:d 14
R295 d1:24 d1:10 3.024
R296 d1:24 MN0@1:d 14
R297 d1:26 d1:27 3.528
R298 d1:26 MN0@1:d 14
R299 d1:27 d1:11 3.024
R300 d1:27 MN0@1:d 14
R301 d1:29 d1:28 3.528
R302 d1:29 MN0@2:d 14
R303 d1:28 d1:16 3.024
R304 d1:28 MN0@2:d 14
R305 d1:30 d1:31 3.528
R306 d1:30 MN0@2:d 14
R307 d1:31 d1:17 3.024
R308 d1:31 MN0@2:d 14
C118 d1:3 0 7.56e-15
C119 d1:3 0 7.56e-15
C120 d1:3 0 1.3923e-13
C121 d1:5 0 2.6460000000000002e-14
C122 d1:5 0 2.6460000000000002e-14
C123 d1:5 0 1.9656e-13
C124 d1:1 0 2.6460000000000002e-14
C125 d1:1 0 2.6460000000000002e-14
C126 d1:1 0 1.0584000000000001e-13
C127 d1:37 0 2.6460000000000002e-14
C128 d1:36 0 2.268e-14
C129 d1:38 0 2.6460000000000002e-14
C130 d1:39 0 2.268e-14
C131 d1:33 0 2.6460000000000002e-14
C132 d1:32 0 2.268e-14
C133 d1:34 0 2.6460000000000002e-14
C134 d1:35 0 2.268e-14
C135 d1:4 0 2.6460000000000002e-14
C136 d1:4 0 2.6460000000000002e-14
C137 d1:4 0 1.9656e-13
C138 d1:2 0 2.6460000000000002e-14
C139 d1:2 0 2.6460000000000002e-14
C140 d1:2 0 1.9656e-13
C141 d1:0 0 2.6460000000000002e-14
C142 d1:0 0 2.6460000000000002e-14
C143 d1:0 0 2.394e-14
C144 d1:21 0 2.6460000000000002e-14
C145 d1:20 0 2.268e-14
C146 d1:22 0 2.6460000000000002e-14
C147 d1:23 0 2.268e-14
C148 d1:25 0 2.6460000000000002e-14
C149 d1:24 0 2.268e-14
C150 d1:26 0 2.6460000000000002e-14
C151 d1:27 0 2.268e-14
C152 d1:29 0 2.6460000000000002e-14
C153 d1:28 0 2.268e-14
C154 d1:30 0 2.6460000000000002e-14
C155 d1:31 0 2.268e-14


* Net:d0 ----------------


R309 d0 d0:13 2.184
R310 d0 d0:15 7.644
R311 d0:15 d0:65 2.184
R312 d0:15 MN1@2:d 14
R313 d0:15 d0:64 1.344
R314 d0:15 MN1@2:d 14
R315 d0:15 d0:16 26.208
R316 d0:15 MN1@2:d 14
R317 d0:16 d0:70 2.184
R318 d0:16 MN1@3:d 14
R319 d0:16 d0:69 1.344
R320 d0:16 MN1@3:d 14
R321 d0:16 d0:12 26.208
R322 d0:16 MN1@3:d 14
R323 d0:12 d0:75 2.184
R324 d0:12 MN1@4:d 14
R325 d0:12 d0:74 1.344
R326 d0:12 MN1@4:d 14
R327 d0:12 d0:34 1.008
R328 d0:12 MN1@4:d 14
R329 d0:74 d0:73 3.528
R330 d0:74 MN1@4:d 14
R331 d0:73 d0:29 3.024
R332 d0:73 MN1@4:d 14
R333 d0:75 d0:76 3.528
R334 d0:75 MN1@4:d 14
R335 d0:76 d0:77 3.528
R336 d0:76 MN1@4:d 14
R337 d0:77 d0:30 3.024
R338 d0:77 MN1@4:d 14
R339 d0:69 d0:68 3.528
R340 d0:69 MN1@3:d 14
R341 d0:68 d0:49 3.024
R342 d0:68 MN1@3:d 14
R343 d0:70 d0:71 3.528
R344 d0:70 MN1@3:d 14
R345 d0:71 d0:72 3.528
R346 d0:71 MN1@3:d 14
R347 d0:72 d0:50 3.024
R348 d0:72 MN1@3:d 14
R349 d0:64 d0:63 3.528
R350 d0:64 MN1@2:d 14
R351 d0:63 d0:43 3.024
R352 d0:63 MN1@2:d 14
R353 d0:65 d0:66 3.528
R354 d0:65 MN1@2:d 14
R355 d0:66 d0:67 3.528
R356 d0:66 MN1@2:d 14
R357 d0:67 d0:44 3.024
R358 d0:67 MN1@2:d 14
R359 d0:13 d0:6 14.952
R360 d0:13 d0:35 1.008
R361 d0:13 d0:14 16.38
R362 d0:14 d0:60 2.184
R363 d0:14 MN1@1:d 14
R364 d0:14 d0:59 1.344
R365 d0:14 MN1@1:d 14
R366 d0:14 d0:2 26.208
R367 d0:14 MN1@1:d 14
R368 d0:2 d0:55 2.184
R369 d0:2 MN1@0:d 14
R370 d0:2 d0:54 1.344
R371 d0:2 MN1@0:d 14
R372 d0:2 d0:33 16.296
R373 d0:2 MN1@0:d 14
R374 d0:54 d0:53 3.528
R375 d0:54 MN1@0:d 14
R376 d0:53 d0:21 3.024
R377 d0:53 MN1@0:d 14
R378 d0:55 d0:56 3.528
R379 d0:55 MN1@0:d 14
R380 d0:56 d0:57 3.528
R381 d0:56 MN1@0:d 14
R382 d0:57 d0:22 3.024
R383 d0:57 MN1@0:d 14
R384 d0:59 d0:58 3.528
R385 d0:59 MN1@1:d 14
R386 d0:58 d0:37 3.024
R387 d0:58 MN1@1:d 14
R388 d0:60 d0:61 3.528
R389 d0:60 MN1@1:d 14
R390 d0:61 d0:62 3.528
R391 d0:61 MN1@1:d 14
R392 d0:62 d0:38 3.024
R393 d0:62 MN1@1:d 14
R394 d0:6 d0:36 1.008
R395 d0:6 d0:8 4.368
R396 d0:6 d0:9 8.736
R397 d0:9 d0:46 1.092
R398 d0:9 MN0@0:g 342
R399 d0:9 MN1@0:g 342
R400 d0:9 MN0@1:g 342
R401 d0:9 MN1@1:g 342
R402 d0:9 MN0@2:g 342
R403 d0:9 MN1@2:g 342
R404 d0:9 MN0@3:g 342
R405 d0:9 MN1@3:g 342
R406 d0:9 MN0@4:g 342
R407 d0:9 MN1@4:g 342
R408 d0:9 d0:45 1.148
R409 d0:9 MN0@0:g 342
R410 d0:9 MN1@0:g 342
R411 d0:9 MN0@1:g 342
R412 d0:9 MN1@1:g 342
R413 d0:9 MN0@2:g 342
R414 d0:9 MN1@2:g 342
R415 d0:9 MN0@3:g 342
R416 d0:9 MN1@3:g 342
R417 d0:9 MN0@4:g 342
R418 d0:9 MN1@4:g 342
R419 d0:9 d0:10 13.104
R420 d0:9 MN0@0:g 342
R421 d0:9 MN1@0:g 342
R422 d0:9 MN0@1:g 342
R423 d0:9 MN1@1:g 342
R424 d0:9 MN0@2:g 342
R425 d0:9 MN1@2:g 342
R426 d0:9 MN0@3:g 342
R427 d0:9 MN1@3:g 342
R428 d0:9 MN0@4:g 342
R429 d0:9 MN1@4:g 342
R430 d0:10 d0:48 1.092
R431 d0:10 MN0@0:g 342
R432 d0:10 MN1@0:g 342
R433 d0:10 MN0@1:g 342
R434 d0:10 MN1@1:g 342
R435 d0:10 MN0@2:g 342
R436 d0:10 MN1@2:g 342
R437 d0:10 MN0@3:g 342
R438 d0:10 MN1@3:g 342
R439 d0:10 MN0@4:g 342
R440 d0:10 MN1@4:g 342
R441 d0:10 d0:47 1.148
R442 d0:10 MN0@0:g 342
R443 d0:10 MN1@0:g 342
R444 d0:10 MN0@1:g 342
R445 d0:10 MN1@1:g 342
R446 d0:10 MN0@2:g 342
R447 d0:10 MN1@2:g 342
R448 d0:10 MN0@3:g 342
R449 d0:10 MN1@3:g 342
R450 d0:10 MN0@4:g 342
R451 d0:10 MN1@4:g 342
R452 d0:10 d0:11 13.104
R453 d0:10 MN0@0:g 342
R454 d0:10 MN1@0:g 342
R455 d0:10 MN0@1:g 342
R456 d0:10 MN1@1:g 342
R457 d0:10 MN0@2:g 342
R458 d0:10 MN1@2:g 342
R459 d0:10 MN0@3:g 342
R460 d0:10 MN1@3:g 342
R461 d0:10 MN0@4:g 342
R462 d0:10 MN1@4:g 342
R463 d0:11 d0:52 1.092
R464 d0:11 MN0@0:g 342
R465 d0:11 MN1@0:g 342
R466 d0:11 MN0@1:g 342
R467 d0:11 MN1@1:g 342
R468 d0:11 MN0@2:g 342
R469 d0:11 MN1@2:g 342
R470 d0:11 MN0@3:g 342
R471 d0:11 MN1@3:g 342
R472 d0:11 MN0@4:g 342
R473 d0:11 MN1@4:g 342
R474 d0:11 d0:51 1.148
R475 d0:11 MN0@0:g 342
R476 d0:11 MN1@0:g 342
R477 d0:11 MN0@1:g 342
R478 d0:11 MN1@1:g 342
R479 d0:11 MN0@2:g 342
R480 d0:11 MN1@2:g 342
R481 d0:11 MN0@3:g 342
R482 d0:11 MN1@3:g 342
R483 d0:11 MN0@4:g 342
R484 d0:11 MN1@4:g 342
R485 d0:11 d0:0 13.104
R486 d0:11 MN0@0:g 342
R487 d0:11 MN1@0:g 342
R488 d0:11 MN0@1:g 342
R489 d0:11 MN1@1:g 342
R490 d0:11 MN0@2:g 342
R491 d0:11 MN1@2:g 342
R492 d0:11 MN0@3:g 342
R493 d0:11 MN1@3:g 342
R494 d0:11 MN0@4:g 342
R495 d0:11 MN1@4:g 342
R496 d0:0 d0:18 1.092
R497 d0:0 MN0@0:g 342
R498 d0:0 MN1@0:g 342
R499 d0:0 MN0@1:g 342
R500 d0:0 MN1@1:g 342
R501 d0:0 MN0@2:g 342
R502 d0:0 MN1@2:g 342
R503 d0:0 MN0@3:g 342
R504 d0:0 MN1@3:g 342
R505 d0:0 MN0@4:g 342
R506 d0:0 MN1@4:g 342
R507 d0:0 d0:17 1.148
R508 d0:0 MN0@0:g 342
R509 d0:0 MN1@0:g 342
R510 d0:0 MN0@1:g 342
R511 d0:0 MN1@1:g 342
R512 d0:0 MN0@2:g 342
R513 d0:0 MN1@2:g 342
R514 d0:0 MN0@3:g 342
R515 d0:0 MN1@3:g 342
R516 d0:0 MN0@4:g 342
R517 d0:0 MN1@4:g 342
R518 d0:0 d0:3 13.104
R519 d0:0 MN0@0:g 342
R520 d0:0 MN1@0:g 342
R521 d0:0 MN0@1:g 342
R522 d0:0 MN1@1:g 342
R523 d0:0 MN0@2:g 342
R524 d0:0 MN1@2:g 342
R525 d0:0 MN0@3:g 342
R526 d0:0 MN1@3:g 342
R527 d0:0 MN0@4:g 342
R528 d0:0 MN1@4:g 342
R529 d0:3 d0:24 1.092
R530 d0:3 MN0@0:g 342
R531 d0:3 MN1@0:g 342
R532 d0:3 MN0@1:g 342
R533 d0:3 MN1@1:g 342
R534 d0:3 MN0@2:g 342
R535 d0:3 MN1@2:g 342
R536 d0:3 MN0@3:g 342
R537 d0:3 MN1@3:g 342
R538 d0:3 MN0@4:g 342
R539 d0:3 MN1@4:g 342
R540 d0:3 d0:23 1.148
R541 d0:3 MN0@0:g 342
R542 d0:3 MN1@0:g 342
R543 d0:3 MN0@1:g 342
R544 d0:3 MN1@1:g 342
R545 d0:3 MN0@2:g 342
R546 d0:3 MN1@2:g 342
R547 d0:3 MN0@3:g 342
R548 d0:3 MN1@3:g 342
R549 d0:3 MN0@4:g 342
R550 d0:3 MN1@4:g 342
R551 d0:3 d0:28 2.1
R552 d0:3 MN0@0:g 342
R553 d0:3 MN1@0:g 342
R554 d0:3 MN0@1:g 342
R555 d0:3 MN1@1:g 342
R556 d0:3 MN0@2:g 342
R557 d0:3 MN1@2:g 342
R558 d0:3 MN0@3:g 342
R559 d0:3 MN1@3:g 342
R560 d0:3 MN0@4:g 342
R561 d0:3 MN1@4:g 342
R562 d0:8 d0:42 1.092
R563 d0:8 MN0@0:g 342
R564 d0:8 MN1@0:g 342
R565 d0:8 MN0@1:g 342
R566 d0:8 MN1@1:g 342
R567 d0:8 MN0@2:g 342
R568 d0:8 MN1@2:g 342
R569 d0:8 MN0@3:g 342
R570 d0:8 MN1@3:g 342
R571 d0:8 MN0@4:g 342
R572 d0:8 MN1@4:g 342
R573 d0:8 d0:41 1.148
R574 d0:8 MN0@0:g 342
R575 d0:8 MN1@0:g 342
R576 d0:8 MN0@1:g 342
R577 d0:8 MN1@1:g 342
R578 d0:8 MN0@2:g 342
R579 d0:8 MN1@2:g 342
R580 d0:8 MN0@3:g 342
R581 d0:8 MN1@3:g 342
R582 d0:8 MN0@4:g 342
R583 d0:8 MN1@4:g 342
R584 d0:8 d0:7 13.104
R585 d0:8 MN0@0:g 342
R586 d0:8 MN1@0:g 342
R587 d0:8 MN0@1:g 342
R588 d0:8 MN1@1:g 342
R589 d0:8 MN0@2:g 342
R590 d0:8 MN1@2:g 342
R591 d0:8 MN0@3:g 342
R592 d0:8 MN1@3:g 342
R593 d0:8 MN0@4:g 342
R594 d0:8 MN1@4:g 342
R595 d0:7 d0:40 1.092
R596 d0:7 MN0@0:g 342
R597 d0:7 MN1@0:g 342
R598 d0:7 MN0@1:g 342
R599 d0:7 MN1@1:g 342
R600 d0:7 MN0@2:g 342
R601 d0:7 MN1@2:g 342
R602 d0:7 MN0@3:g 342
R603 d0:7 MN1@3:g 342
R604 d0:7 MN0@4:g 342
R605 d0:7 MN1@4:g 342
R606 d0:7 d0:39 1.148
R607 d0:7 MN0@0:g 342
R608 d0:7 MN1@0:g 342
R609 d0:7 MN0@1:g 342
R610 d0:7 MN1@1:g 342
R611 d0:7 MN0@2:g 342
R612 d0:7 MN1@2:g 342
R613 d0:7 MN0@3:g 342
R614 d0:7 MN1@3:g 342
R615 d0:7 MN0@4:g 342
R616 d0:7 MN1@4:g 342
R617 d0:7 d0:5 13.104
R618 d0:7 MN0@0:g 342
R619 d0:7 MN1@0:g 342
R620 d0:7 MN0@1:g 342
R621 d0:7 MN1@1:g 342
R622 d0:7 MN0@2:g 342
R623 d0:7 MN1@2:g 342
R624 d0:7 MN0@3:g 342
R625 d0:7 MN1@3:g 342
R626 d0:7 MN0@4:g 342
R627 d0:7 MN1@4:g 342
R628 d0:5 d0:32 1.092
R629 d0:5 MN0@0:g 342
R630 d0:5 MN1@0:g 342
R631 d0:5 MN0@1:g 342
R632 d0:5 MN1@1:g 342
R633 d0:5 MN0@2:g 342
R634 d0:5 MN1@2:g 342
R635 d0:5 MN0@3:g 342
R636 d0:5 MN1@3:g 342
R637 d0:5 MN0@4:g 342
R638 d0:5 MN1@4:g 342
R639 d0:5 d0:31 1.148
R640 d0:5 MN0@0:g 342
R641 d0:5 MN1@0:g 342
R642 d0:5 MN0@1:g 342
R643 d0:5 MN1@1:g 342
R644 d0:5 MN0@2:g 342
R645 d0:5 MN1@2:g 342
R646 d0:5 MN0@3:g 342
R647 d0:5 MN1@3:g 342
R648 d0:5 MN0@4:g 342
R649 d0:5 MN1@4:g 342
R650 d0:5 d0:4 13.104
R651 d0:5 MN0@0:g 342
R652 d0:5 MN1@0:g 342
R653 d0:5 MN0@1:g 342
R654 d0:5 MN1@1:g 342
R655 d0:5 MN0@2:g 342
R656 d0:5 MN1@2:g 342
R657 d0:5 MN0@3:g 342
R658 d0:5 MN1@3:g 342
R659 d0:5 MN0@4:g 342
R660 d0:5 MN1@4:g 342
R661 d0:4 d0:26 1.092
R662 d0:4 MN0@0:g 342
R663 d0:4 MN1@0:g 342
R664 d0:4 MN0@1:g 342
R665 d0:4 MN1@1:g 342
R666 d0:4 MN0@2:g 342
R667 d0:4 MN1@2:g 342
R668 d0:4 MN0@3:g 342
R669 d0:4 MN1@3:g 342
R670 d0:4 MN0@4:g 342
R671 d0:4 MN1@4:g 342
R672 d0:4 d0:25 1.148
R673 d0:4 MN0@0:g 342
R674 d0:4 MN1@0:g 342
R675 d0:4 MN0@1:g 342
R676 d0:4 MN1@1:g 342
R677 d0:4 MN0@2:g 342
R678 d0:4 MN1@2:g 342
R679 d0:4 MN0@3:g 342
R680 d0:4 MN1@3:g 342
R681 d0:4 MN0@4:g 342
R682 d0:4 MN1@4:g 342
R683 d0:4 d0:1 13.104
R684 d0:4 MN0@0:g 342
R685 d0:4 MN1@0:g 342
R686 d0:4 MN0@1:g 342
R687 d0:4 MN1@1:g 342
R688 d0:4 MN0@2:g 342
R689 d0:4 MN1@2:g 342
R690 d0:4 MN0@3:g 342
R691 d0:4 MN1@3:g 342
R692 d0:4 MN0@4:g 342
R693 d0:4 MN1@4:g 342
R694 d0:1 d0:20 1.092
R695 d0:1 MN0@0:g 342
R696 d0:1 MN1@0:g 342
R697 d0:1 MN0@1:g 342
R698 d0:1 MN1@1:g 342
R699 d0:1 MN0@2:g 342
R700 d0:1 MN1@2:g 342
R701 d0:1 MN0@3:g 342
R702 d0:1 MN1@3:g 342
R703 d0:1 MN0@4:g 342
R704 d0:1 MN1@4:g 342
R705 d0:1 d0:19 1.148
R706 d0:1 MN0@0:g 342
R707 d0:1 MN1@0:g 342
R708 d0:1 MN0@1:g 342
R709 d0:1 MN1@1:g 342
R710 d0:1 MN0@2:g 342
R711 d0:1 MN1@2:g 342
R712 d0:1 MN0@3:g 342
R713 d0:1 MN1@3:g 342
R714 d0:1 MN0@4:g 342
R715 d0:1 MN1@4:g 342
R716 d0:1 d0:27 2.1
R717 d0:1 MN0@0:g 342
R718 d0:1 MN1@0:g 342
R719 d0:1 MN0@1:g 342
R720 d0:1 MN1@1:g 342
R721 d0:1 MN0@2:g 342
R722 d0:1 MN1@2:g 342
R723 d0:1 MN0@3:g 342
R724 d0:1 MN1@3:g 342
R725 d0:1 MN0@4:g 342
R726 d0:1 MN1@4:g 342
R727 MN1@4:d MN2@0:d 0.01
C156 d0:15 0 1.6380000000000002e-14
C157 d0:15 0 1.008e-14
C158 d0:15 0 1.9655999999999992e-13
C159 d0:16 0 1.6380000000000002e-14
C160 d0:16 0 1.008e-14
C161 d0:16 0 1.9656e-13
C162 d0:12 0 1.6380000000000002e-14
C163 d0:12 0 1.008e-14
C164 d0:12 0 7.56e-15
C165 d0:74 0 2.6460000000000002e-14
C166 d0:73 0 2.268e-14
C167 d0:75 0 2.6460000000000002e-14
C168 d0:76 0 2.6460000000000002e-14
C169 d0:77 0 2.268e-14
C170 d0:69 0 2.6460000000000002e-14
C171 d0:68 0 2.268e-14
C172 d0:70 0 2.6460000000000002e-14
C173 d0:71 0 2.6460000000000002e-14
C174 d0:72 0 2.268e-14
C175 d0:64 0 2.6460000000000002e-14
C176 d0:63 0 2.268e-14
C177 d0:65 0 2.6460000000000002e-14
C178 d0:66 0 2.6460000000000002e-14
C179 d0:67 0 2.268e-14
C180 d0:13 0 1.1214e-13
C181 d0:13 0 7.56e-15
C182 d0:13 0 1.2285e-13
C183 d0:14 0 1.6380000000000002e-14
C184 d0:14 0 1.008e-14
C185 d0:14 0 1.9656e-13
C186 d0:2 0 1.6380000000000002e-14
C187 d0:2 0 1.008e-14
C188 d0:2 0 1.2222e-13
C189 d0:54 0 2.6460000000000002e-14
C190 d0:53 0 2.268e-14
C191 d0:55 0 2.6460000000000002e-14
C192 d0:56 0 2.6460000000000002e-14
C193 d0:57 0 2.268e-14
C194 d0:59 0 2.6460000000000002e-14
C195 d0:58 0 2.268e-14
C196 d0:60 0 2.6460000000000002e-14
C197 d0:61 0 2.6460000000000002e-14
C198 d0:62 0 2.268e-14
C199 d0:6 0 7.56e-15
C200 d0:6 0 3.2760000000000004e-14
C201 d0:6 0 6.552000000000001e-14
C202 d0:9 0 8.190000000000001e-15
C203 d0:9 0 8.61e-15
C204 d0:9 0 9.827999999999991e-14
C205 d0:10 0 8.190000000000001e-15
C206 d0:10 0 8.61e-15
C207 d0:10 0 9.82800000000001e-14
C208 d0:11 0 8.190000000000001e-15
C209 d0:11 0 8.61e-15
C210 d0:11 0 9.828e-14
C211 d0:0 0 8.190000000000001e-15
C212 d0:0 0 8.61e-15
C213 d0:0 0 9.828e-14
C214 d0:3 0 8.190000000000001e-15
C215 d0:3 0 8.61e-15
C216 d0:3 0 1.5750000000000002e-14
C217 d0:8 0 8.190000000000001e-15
C218 d0:8 0 8.61e-15
C219 d0:8 0 9.828e-14
C220 d0:7 0 8.190000000000001e-15
C221 d0:7 0 8.61e-15
C222 d0:7 0 9.828e-14
C223 d0:5 0 8.190000000000001e-15
C224 d0:5 0 8.61e-15
C225 d0:5 0 9.828e-14
C226 d0:4 0 8.190000000000001e-15
C227 d0:4 0 8.61e-15
C228 d0:4 0 9.828e-14
C229 d0:1 0 8.190000000000001e-15
C230 d0:1 0 8.61e-15
C231 d0:1 0 1.5750000000000002e-14


xMN0@0 MN0@0:d MN0@0:g MN0@0:s MN0@0:b nfet m=1 l=1.4e-08 nfin=15 nf=1 par=1 par_nf=1 asej=8.91e-15 adej=8.91e-15 psej=1.78e-06 pdej=1.78e-06 pdevdops=1 pdevlgeos=1 pdevwgeos=1psw_acv_sign=1 plnest=1 pldist=1 plorient=0 cpp=7.8e-08 fpitch=4.8e-08 xpos=-99 ypos=-99 ptwell=0sca=0 scb=0 scc=0 pre_layout_local=-1 ngcon=1 p_vta=0 p_la=0 u0mult_fet=1 lle_sa=71e-9 lle_sb=71e-9lle_rxrxa=78e-9 lle_rxrxb=78e-9 lle_rxrxn=192e-9 lle_rxrxs=192e-9 lle_pcrxn=55e-9 lle_pcrxs=55e-9lle_nwa=2e-6 lle_nwb=2e-6 lle_nwn=192e-9 lle_nws=192e-9 lle_ctne=0 lle_ctnw=0 lle_ctse=0 lle_ctsw=0lle_sctne=0 lle_sctnw=0 lle_sctse=0 lle_sctsw=0 lrsd=27e-9 dtemp=0 l_shape=0 l_shape_s=0 nsig_dop1=0nsig_dop2=0 nsig_dibl=0 nsig_pc=0 nsig_rx=0 fc_index=0 fc_sigma=3 analog=-1 nf_pex=1
xMN1@0 MN1@0:d MN1@0:g MN1@0:s MN1@0:b nfet m=1 l=1.4e-08 nfin=15 nf=1 par=1 par_nf=1 asej=8.91e-15 adej=8.91e-15 psej=1.78e-06 pdej=1.78e-06 pdevdops=1 pdevlgeos=1 pdevwgeos=1psw_acv_sign=1 plnest=1 pldist=1 plorient=0 cpp=7.8e-08 fpitch=4.8e-08 xpos=-99 ypos=-99 ptwell=0sca=0 scb=0 scc=0 pre_layout_local=-1 ngcon=1 p_vta=0 p_la=0 u0mult_fet=1 lle_sa=71e-9 lle_sb=71e-9lle_rxrxa=78e-9 lle_rxrxb=78e-9 lle_rxrxn=192e-9 lle_rxrxs=192e-9 lle_pcrxn=55e-9 lle_pcrxs=55e-9lle_nwa=2e-6 lle_nwb=2e-6 lle_nwn=192e-9 lle_nws=192e-9 lle_ctne=0 lle_ctnw=0 lle_ctse=0 lle_ctsw=0lle_sctne=0 lle_sctnw=0 lle_sctse=0 lle_sctsw=0 lrsd=27e-9 dtemp=0 l_shape=0 l_shape_s=0 nsig_dop1=0nsig_dop2=0 nsig_dibl=0 nsig_pc=0 nsig_rx=0 fc_index=0 fc_sigma=3 analog=-1 nf_pex=1
xMN0@1 MN0@1:d MN0@1:g MN0@1:s MN0@1:b nfet m=1 l=1.4e-08 nfin=15 nf=1 par=1 par_nf=1 asej=8.91e-15 adej=8.91e-15 psej=1.78e-06 pdej=1.78e-06 pdevdops=1 pdevlgeos=1 pdevwgeos=1psw_acv_sign=1 plnest=1 pldist=1 plorient=0 cpp=7.8e-08 fpitch=4.8e-08 xpos=-99 ypos=-99 ptwell=0sca=0 scb=0 scc=0 pre_layout_local=-1 ngcon=1 p_vta=0 p_la=0 u0mult_fet=1 lle_sa=71e-9 lle_sb=71e-9lle_rxrxa=78e-9 lle_rxrxb=78e-9 lle_rxrxn=192e-9 lle_rxrxs=192e-9 lle_pcrxn=55e-9 lle_pcrxs=55e-9lle_nwa=2e-6 lle_nwb=2e-6 lle_nwn=192e-9 lle_nws=192e-9 lle_ctne=0 lle_ctnw=0 lle_ctse=0 lle_ctsw=0lle_sctne=0 lle_sctnw=0 lle_sctse=0 lle_sctsw=0 lrsd=27e-9 dtemp=0 l_shape=0 l_shape_s=0 nsig_dop1=0nsig_dop2=0 nsig_dibl=0 nsig_pc=0 nsig_rx=0 fc_index=0 fc_sigma=3 analog=-1 nf_pex=1
xMN1@1 MN1@1:d MN1@1:g MN1@1:s MN1@1:b nfet m=1 l=1.4e-08 nfin=15 nf=1 par=1 par_nf=1 asej=8.91e-15 adej=8.91e-15 psej=1.78e-06 pdej=1.78e-06 pdevdops=1 pdevlgeos=1 pdevwgeos=1psw_acv_sign=1 plnest=1 pldist=1 plorient=0 cpp=7.8e-08 fpitch=4.8e-08 xpos=-99 ypos=-99 ptwell=0sca=0 scb=0 scc=0 pre_layout_local=-1 ngcon=1 p_vta=0 p_la=0 u0mult_fet=1 lle_sa=71e-9 lle_sb=71e-9lle_rxrxa=78e-9 lle_rxrxb=78e-9 lle_rxrxn=192e-9 lle_rxrxs=192e-9 lle_pcrxn=55e-9 lle_pcrxs=55e-9lle_nwa=2e-6 lle_nwb=2e-6 lle_nwn=192e-9 lle_nws=192e-9 lle_ctne=0 lle_ctnw=0 lle_ctse=0 lle_ctsw=0lle_sctne=0 lle_sctnw=0 lle_sctse=0 lle_sctsw=0 lrsd=27e-9 dtemp=0 l_shape=0 l_shape_s=0 nsig_dop1=0nsig_dop2=0 nsig_dibl=0 nsig_pc=0 nsig_rx=0 fc_index=0 fc_sigma=3 analog=-1 nf_pex=1
xMN0@2 MN0@2:d MN0@2:g MN0@2:s MN0@2:b nfet m=1 l=1.4e-08 nfin=15 nf=1 par=1 par_nf=1 asej=8.91e-15 adej=8.91e-15 psej=1.78e-06 pdej=1.78e-06 pdevdops=1 pdevlgeos=1 pdevwgeos=1psw_acv_sign=1 plnest=1 pldist=1 plorient=0 cpp=7.8e-08 fpitch=4.8e-08 xpos=-99 ypos=-99 ptwell=0sca=0 scb=0 scc=0 pre_layout_local=-1 ngcon=1 p_vta=0 p_la=0 u0mult_fet=1 lle_sa=71e-9 lle_sb=71e-9lle_rxrxa=78e-9 lle_rxrxb=78e-9 lle_rxrxn=192e-9 lle_rxrxs=192e-9 lle_pcrxn=55e-9 lle_pcrxs=55e-9lle_nwa=2e-6 lle_nwb=2e-6 lle_nwn=192e-9 lle_nws=192e-9 lle_ctne=0 lle_ctnw=0 lle_ctse=0 lle_ctsw=0lle_sctne=0 lle_sctnw=0 lle_sctse=0 lle_sctsw=0 lrsd=27e-9 dtemp=0 l_shape=0 l_shape_s=0 nsig_dop1=0nsig_dop2=0 nsig_dibl=0 nsig_pc=0 nsig_rx=0 fc_index=0 fc_sigma=3 analog=-1 nf_pex=1
xMN1@2 MN1@2:d MN1@2:g MN1@2:s MN1@2:b nfet m=1 l=1.4e-08 nfin=15 nf=1 par=1 par_nf=1 asej=8.91e-15 adej=8.91e-15 psej=1.78e-06 pdej=1.78e-06 pdevdops=1 pdevlgeos=1 pdevwgeos=1psw_acv_sign=1 plnest=1 pldist=1 plorient=0 cpp=7.8e-08 fpitch=4.8e-08 xpos=-99 ypos=-99 ptwell=0sca=0 scb=0 scc=0 pre_layout_local=-1 ngcon=1 p_vta=0 p_la=0 u0mult_fet=1 lle_sa=71e-9 lle_sb=71e-9lle_rxrxa=78e-9 lle_rxrxb=78e-9 lle_rxrxn=192e-9 lle_rxrxs=192e-9 lle_pcrxn=55e-9 lle_pcrxs=55e-9lle_nwa=2e-6 lle_nwb=2e-6 lle_nwn=192e-9 lle_nws=192e-9 lle_ctne=0 lle_ctnw=0 lle_ctse=0 lle_ctsw=0lle_sctne=0 lle_sctnw=0 lle_sctse=0 lle_sctsw=0 lrsd=27e-9 dtemp=0 l_shape=0 l_shape_s=0 nsig_dop1=0nsig_dop2=0 nsig_dibl=0 nsig_pc=0 nsig_rx=0 fc_index=0 fc_sigma=3 analog=-1 nf_pex=1
xMN0@3 MN0@3:d MN0@3:g MN0@3:s MN0@3:b nfet m=1 l=1.4e-08 nfin=15 nf=1 par=1 par_nf=1 asej=8.91e-15 adej=8.91e-15 psej=1.78e-06 pdej=1.78e-06 pdevdops=1 pdevlgeos=1 pdevwgeos=1psw_acv_sign=1 plnest=1 pldist=1 plorient=0 cpp=7.8e-08 fpitch=4.8e-08 xpos=-99 ypos=-99 ptwell=0sca=0 scb=0 scc=0 pre_layout_local=-1 ngcon=1 p_vta=0 p_la=0 u0mult_fet=1 lle_sa=71e-9 lle_sb=71e-9lle_rxrxa=78e-9 lle_rxrxb=78e-9 lle_rxrxn=192e-9 lle_rxrxs=192e-9 lle_pcrxn=55e-9 lle_pcrxs=55e-9lle_nwa=2e-6 lle_nwb=2e-6 lle_nwn=192e-9 lle_nws=192e-9 lle_ctne=0 lle_ctnw=0 lle_ctse=0 lle_ctsw=0lle_sctne=0 lle_sctnw=0 lle_sctse=0 lle_sctsw=0 lrsd=27e-9 dtemp=0 l_shape=0 l_shape_s=0 nsig_dop1=0nsig_dop2=0 nsig_dibl=0 nsig_pc=0 nsig_rx=0 fc_index=0 fc_sigma=3 analog=-1 nf_pex=1
xMN1@3 MN1@3:d MN1@3:g MN1@3:s MN1@3:b nfet m=1 l=1.4e-08 nfin=15 nf=1 par=1 par_nf=1 asej=8.91e-15 adej=8.91e-15 psej=1.78e-06 pdej=1.78e-06 pdevdops=1 pdevlgeos=1 pdevwgeos=1psw_acv_sign=1 plnest=1 pldist=1 plorient=0 cpp=7.8e-08 fpitch=4.8e-08 xpos=-99 ypos=-99 ptwell=0sca=0 scb=0 scc=0 pre_layout_local=-1 ngcon=1 p_vta=0 p_la=0 u0mult_fet=1 lle_sa=71e-9 lle_sb=71e-9lle_rxrxa=78e-9 lle_rxrxb=78e-9 lle_rxrxn=192e-9 lle_rxrxs=192e-9 lle_pcrxn=55e-9 lle_pcrxs=55e-9lle_nwa=2e-6 lle_nwb=2e-6 lle_nwn=192e-9 lle_nws=192e-9 lle_ctne=0 lle_ctnw=0 lle_ctse=0 lle_ctsw=0lle_sctne=0 lle_sctnw=0 lle_sctse=0 lle_sctsw=0 lrsd=27e-9 dtemp=0 l_shape=0 l_shape_s=0 nsig_dop1=0nsig_dop2=0 nsig_dibl=0 nsig_pc=0 nsig_rx=0 fc_index=0 fc_sigma=3 analog=-1 nf_pex=1
xMN0@4 MN0@4:d MN0@4:g MN0@4:s MN0@4:b nfet m=1 l=1.4e-08 nfin=15 nf=1 par=1 par_nf=1 asej=8.91e-15 adej=8.91e-15 psej=1.78e-06 pdej=1.78e-06 pdevdops=1 pdevlgeos=1 pdevwgeos=1psw_acv_sign=1 plnest=1 pldist=1 plorient=0 cpp=7.8e-08 fpitch=4.8e-08 xpos=-99 ypos=-99 ptwell=0sca=0 scb=0 scc=0 pre_layout_local=-1 ngcon=1 p_vta=0 p_la=0 u0mult_fet=1 lle_sa=71e-9 lle_sb=71e-9lle_rxrxa=78e-9 lle_rxrxb=78e-9 lle_rxrxn=192e-9 lle_rxrxs=192e-9 lle_pcrxn=55e-9 lle_pcrxs=55e-9lle_nwa=2e-6 lle_nwb=2e-6 lle_nwn=192e-9 lle_nws=192e-9 lle_ctne=0 lle_ctnw=0 lle_ctse=0 lle_ctsw=0lle_sctne=0 lle_sctnw=0 lle_sctse=0 lle_sctsw=0 lrsd=27e-9 dtemp=0 l_shape=0 l_shape_s=0 nsig_dop1=0nsig_dop2=0 nsig_dibl=0 nsig_pc=0 nsig_rx=0 fc_index=0 fc_sigma=3 analog=-1 nf_pex=1